*SOIL-PLANT-ATMOSPHERE MODULE OUTPUT FILE

*DSSAT Cropping System Model Ver. 4.7.5.008 -release  JAN 03, 2020 19:06:54

*RUN   1        : January_to_January        CSYCA047 EMBR8101    1
 MODEL          : CSYCA047 - Cassava
 EXPERIMENT     : EMBR8101 CS YUCA_TESTANDO
 DATA PATH      : C:\DSSAT47\CASSAVA\
 TREATMENT  1   : January_to_January        CSYCA047
  
!                                                                                                                                                                                        Soil evaporation (mm/d) by soil depth (cm):
!                                                                                                                                                                                        0-5    5-15   15-30   30-45   45-60   60-90  90-120 120-150
@YEAR DOY   DAS   SRAA  TMAXA  TMINA    REFA    EOAA    EOPA    EOSA    KCAA    KCBA    KEAA    ETAA    EPAA    ESAA    EFAA    EMAA    EOAC    ETAC    EPAC    ESAC    EFAC    EMAC    ES1D    ES2D    ES3D    ES4D    ES5D    ES6D    ES7D    ES8D   TRWUD
 1980 336     1  25.60  33.50  21.10 -99.000   7.479   0.000   7.479 -99.000 -99.000 -99.000   1.879   0.000   1.879   0.000   0.000    7.48    1.88    0.00    1.88    0.00    0.00   1.552   0.204   0.062   0.025   0.013   0.014   0.005   0.003   0.000
 1980 337     2  25.90  34.70  21.20 -99.000   7.635   0.000   7.635 -99.000 -99.000 -99.000   1.725   0.000   1.725   0.000   0.000   15.11    3.60    0.00    3.60    0.00    0.00   1.400   0.203   0.062   0.025   0.013   0.014   0.005   0.003   0.000
 1980 338     3  21.40  34.00  22.40 -99.000   6.291   0.000   6.291 -99.000 -99.000 -99.000   1.586   0.000   1.586   0.000   0.000   21.40    5.19    0.00    5.19    0.00    0.00   1.263   0.202   0.062   0.024   0.013   0.014   0.005   0.003   0.000
 1980 339     4  17.50  33.60  22.70 -99.000   5.117   0.000   5.117 -99.000 -99.000 -99.000   1.461   0.000   1.461   0.000   0.000   26.52    6.65    0.00    6.65    0.00    0.00   1.139   0.200   0.062   0.024   0.013   0.014   0.005   0.003   0.000
 1980 340     5  24.90  34.20  21.80 -99.000   7.258   0.000   7.258 -99.000 -99.000 -99.000   1.348   0.000   1.348   0.000   0.000   33.78    8.00    0.00    8.00    0.00    0.00   1.027   0.199   0.062   0.024   0.013   0.014   0.005   0.003   0.000
 1980 341     6  22.40  34.90  22.60 -99.000   6.594   0.000   6.594 -99.000 -99.000 -99.000   1.246   0.000   1.246   0.000   0.000   40.37    9.25    0.00    9.25    0.00    0.00   0.927   0.198   0.062   0.024   0.013   0.014   0.005   0.003   0.000
 1980 342     7  24.40  33.30  21.60 -99.000   7.000   0.000   7.000 -99.000 -99.000 -99.000   1.154   0.000   1.154   0.000   0.000   47.37   10.40    0.00   10.40    0.00    0.00   0.836   0.196   0.062   0.024   0.013   0.014   0.005   0.003   0.000
 1980 343     8  23.70  34.90  23.00 -99.000   6.963   0.000   6.963 -99.000 -99.000 -99.000   1.071   0.000   1.071   0.000   0.000   54.34   11.47    0.00   11.47    0.00    0.00   0.754   0.195   0.062   0.024   0.013   0.014   0.005   0.003   0.000
 1980 344     9  21.00  34.60  22.30 -99.000   6.109   0.000   6.109 -99.000 -99.000 -99.000   0.995   0.000   0.995   0.000   0.000   60.45   12.47    0.00   12.47    0.00    0.00   0.680   0.194   0.062   0.024   0.013   0.014   0.005   0.003   0.000
 1980 345    10  15.70  32.10  23.30 -99.000   4.473   0.000   4.473 -99.000 -99.000 -99.000   0.927   0.000   0.927   0.000   0.000   64.92   13.39    0.00   13.39    0.00    0.00   0.613   0.193   0.062   0.024   0.013   0.014   0.005   0.003   0.000
 1980 346    11  22.80  34.90  22.40 -99.000   6.634   0.000   6.634 -99.000 -99.000 -99.000   0.866   0.000   0.866   0.000   0.000   71.55   14.26    0.00   14.26    0.00    0.00   0.553   0.191   0.062   0.024   0.013   0.014   0.005   0.003   0.000
 1980 347    12  24.00  34.80  21.60 -99.000   6.928   0.000   6.928 -99.000 -99.000 -99.000   0.810   0.000   0.810   0.000   0.000   78.48   15.07    0.00   15.07    0.00    0.00   0.499   0.190   0.061   0.024   0.013   0.014   0.005   0.003   0.000
 1980 348    13  25.00  34.80  21.10 -99.000   7.182   0.000   7.182 -99.000 -99.000 -99.000   0.760   0.000   0.760   0.000   0.000   85.66   15.83    0.00   15.83    0.00    0.00   0.450   0.189   0.061   0.024   0.013   0.014   0.005   0.003   0.000
 1980 349    14  22.90  34.70  22.50 -99.000   6.627   0.000   6.627 -99.000 -99.000 -99.000   0.715   0.000   0.715   0.000   0.000   92.29   16.54    0.00   16.54    0.00    0.00   0.406   0.188   0.061   0.024   0.013   0.014   0.005   0.003   0.000
 1980 350    15  17.70  33.20  22.00 -99.000   5.021   0.000   5.021 -99.000 -99.000 -99.000   0.673   0.000   0.673   0.000   0.000   97.31   17.22    0.00   17.22    0.00    0.00   0.366   0.187   0.061   0.024   0.013   0.014   0.005   0.003   0.000
 1980 351    16  14.00  31.00  21.80 -99.000   3.871   0.000   3.871 -99.000 -99.000 -99.000   0.661   0.000   0.661   0.000   0.000  101.18   17.88    0.00   17.88    0.00    0.00   0.355   0.185   0.061   0.024   0.013   0.014   0.005   0.003   0.000
 1980 352    17  10.70  30.30  19.90 -99.000   2.898   0.000   2.898 -99.000 -99.000 -99.000   0.948   0.000   0.948   0.000   0.000  104.08   18.83    0.00   18.83    0.00    0.00   0.643   0.184   0.061   0.024   0.013   0.014   0.005   0.003   0.000
 1980 353    18  17.70  31.00  20.50 -99.000   4.923   0.000   4.923 -99.000 -99.000 -99.000   4.923   0.000   4.923   0.000   0.000  109.00   23.75    0.00   23.75    0.00    0.00   0.146   0.344   0.492   0.514   0.516   1.113   0.872   0.926   0.000
 1980 354    19  15.10  29.90  20.20 -99.000   4.252   0.000   4.252 -99.000 -99.000 -99.000   4.252   0.000   4.252   0.000   0.000  113.25   28.00    0.00   28.00    0.00    0.00   1.026   0.771   0.589   0.403   0.315   0.529   0.327   0.292   0.000
 1980 355    20  23.50  31.30  19.80 -99.000   6.684   0.000   6.684 -99.000 -99.000 -99.000   6.684   0.000   6.684   0.000   0.000  119.94   34.68    0.00   34.68    0.00    0.00   1.579   1.189   0.974   0.646   0.495   0.829   0.514   0.458   0.000
 1980 356    21  22.70  30.80  19.90 -99.000   6.417   0.000   6.417 -99.000 -99.000 -99.000   6.417   0.000   6.417   0.000   0.000  126.36   41.10    0.00   41.10    0.00    0.00   1.502   1.147   0.934   0.629   0.477   0.794   0.493   0.440   0.000
 1980 357    22  18.50  30.00  19.70 -99.000   5.178   0.000   5.178 -99.000 -99.000 -99.000   5.178   0.000   5.178   0.000   0.000  131.53   46.28    0.00   46.28    0.00    0.00   1.169   0.921   0.753   0.516   0.397   0.655   0.405   0.361   0.000
 1980 358    23  16.00  30.20  21.40 -99.000   4.525   0.000   4.525 -99.000 -99.000 -99.000   4.525   0.000   4.525   0.000   0.000  136.06   50.80    0.00   50.80    0.00    0.00   0.978   0.792   0.658   0.460   0.359   0.592   0.362   0.324   0.000
 1980 359    24  15.70  30.10  21.90 -99.000   4.440   0.000   4.440 -99.000 -99.000 -99.000   4.440   0.000   4.440   0.000   0.000  140.50   55.24    0.00   55.24    0.00    0.00   0.941   0.765   0.647   0.457   0.358   0.591   0.360   0.322   0.000
 1980 360    25  20.70  30.30  20.40 -99.000   5.801   0.000   5.801 -99.000 -99.000 -99.000   5.801   0.000   5.801   0.000   0.000  146.30   61.04    0.00   61.04    0.00    0.00   1.206   0.989   0.845   0.605   0.473   0.780   0.476   0.426   0.000
 1980 361    26  24.30  31.40  21.30 -99.000   6.913   0.000   6.913 -99.000 -99.000 -99.000   5.043   0.000   5.043   0.000   0.000  153.21   66.09    0.00   66.09    0.00    0.00   0.150   0.343   0.524   0.540   0.536   1.135   0.878   0.938   0.000
 1980 362    27  21.90  31.00  21.30 -99.000   6.201   0.000   6.201 -99.000 -99.000 -99.000   1.643   0.000   1.643   0.000   0.000  159.41   67.73    0.00   67.73    0.00    0.00   1.324   0.199   0.062   0.024   0.012   0.014   0.005   0.003   0.000
 1980 363    28  21.60  31.10  21.80 -99.000   6.123   0.000   6.123 -99.000 -99.000 -99.000   1.511   0.000   1.511   0.000   0.000  165.54   69.24    0.00   69.24    0.00    0.00   1.194   0.198   0.062   0.024   0.012   0.014   0.005   0.003   0.000
 1980 364    29  20.80  31.10  21.90 -99.000   5.882   0.000   5.882 -99.000 -99.000 -99.000   1.393   0.000   1.393   0.000   0.000  171.42   70.64    0.00   70.64    0.00    0.00   1.077   0.196   0.062   0.024   0.012   0.014   0.005   0.003   0.000
 1980 365    30  24.30  32.20  21.40 -99.000   6.907   0.000   6.907 -99.000 -99.000 -99.000   1.286   0.000   1.286   0.000   0.000  178.33   71.92    0.00   71.92    0.00    0.00   0.972   0.195   0.062   0.024   0.012   0.014   0.005   0.003   0.000
 1980 366    31  16.50  30.90  21.60 -99.000   4.620   0.000   4.620 -99.000 -99.000 -99.000   1.189   0.000   1.189   0.000   0.000  182.95   73.11    0.00   73.11    0.00    0.00   0.876   0.194   0.061   0.024   0.012   0.014   0.005   0.003   0.000
 1981 001    32  11.10  29.80  22.30 -99.000   3.080   0.000   3.080 -99.000 -99.000 -99.000   1.225   0.000   1.225   0.000   0.000  186.03   74.34    0.00   74.34    0.00    0.00   0.913   0.193   0.061   0.024   0.012   0.014   0.005   0.003   0.000
 1981 002    33  17.80  32.00  22.20 -99.000   5.074   0.000   5.074 -99.000 -99.000 -99.000   1.330   0.000   1.330   0.000   0.000  191.10   75.67    0.00   75.67    0.00    0.00   1.020   0.191   0.061   0.024   0.012   0.014   0.005   0.003   0.000
 1981 003    34  22.30  32.60  22.80 -99.000   6.432   0.000   6.432 -99.000 -99.000 -99.000   1.518   0.000   1.518   0.000   0.000  197.53   77.18    0.00   77.18    0.00    0.00   1.209   0.190   0.061   0.024   0.012   0.014   0.005   0.003   0.000
 1981 004    35  22.30  32.10  22.50 -99.000   6.440   0.000   6.440 -99.000 -99.000 -99.000   1.614   0.000   1.614   0.000   0.000  203.97   78.80    0.00   78.80    0.00    0.00   1.306   0.189   0.061   0.024   0.012   0.014   0.005   0.003   0.000
 1981 005    36  23.60  32.30  20.30 -99.000   6.701   0.000   6.701 -99.000 -99.000 -99.000   1.484   0.000   1.484   0.000   0.000  210.67   80.28    0.00   80.28    0.00    0.00   1.178   0.188   0.061   0.024   0.012   0.014   0.005   0.003   0.000
 1981 006    37  22.60  32.90  22.00 -99.000   6.515   0.000   6.515 -99.000 -99.000 -99.000   1.368   0.000   1.368   0.000   0.000  217.19   81.65    0.00   81.65    0.00    0.00   1.062   0.186   0.061   0.024   0.012   0.014   0.005   0.003   0.000
 1981 007    38  24.50  32.50  22.70 -99.000   7.047   0.000   7.047 -99.000 -99.000 -99.000   1.262   0.000   1.262   0.000   0.000  224.23   82.91    0.00   82.91    0.00    0.00   0.958   0.185   0.061   0.024   0.012   0.014   0.005   0.003   0.000
 1981 008    39  25.10  33.10  21.80 -99.000   7.201   0.000   7.201 -99.000 -99.000 -99.000   1.167   0.000   1.167   0.000   0.000  231.44   84.08    0.00   84.08    0.00    0.00   0.864   0.184   0.061   0.024   0.012   0.014   0.005   0.003   0.000
 1981 009    40  24.50  33.60  21.40 -99.000   7.030   0.000   7.030 -99.000 -99.000 -99.000   1.081   0.000   1.081   0.000   0.000  238.47   85.16    0.00   85.16    0.00    0.00   0.780   0.183   0.061   0.024   0.012   0.014   0.005   0.003   0.000
 1981 010    41  25.30  33.00  21.00 -99.000   7.179   0.000   7.179 -99.000 -99.000 -99.000   1.003   0.000   1.003   0.000   0.000  245.64   86.16    0.00   86.16    0.00    0.00   0.703   0.182   0.061   0.024   0.012   0.014   0.005   0.003   0.000
 1981 011    42  21.90  32.80  22.30 -99.000   6.246   0.000   6.246 -99.000 -99.000 -99.000   0.933   0.000   0.933   0.000   0.000  251.89   87.09    0.00   87.09    0.00    0.00   0.634   0.180   0.061   0.024   0.012   0.014   0.005   0.003   0.000
 1981 012    43  24.40  33.50  21.30 -99.000   6.949   0.000   6.949 -99.000 -99.000 -99.000   0.869   0.000   0.869   0.000   0.000  258.84   87.96    0.00   87.96    0.00    0.00   0.572   0.179   0.061   0.024   0.012   0.014   0.005   0.003   0.000
 1981 013    44  22.30  33.80  22.10 -99.000   6.396   0.000   6.396 -99.000 -99.000 -99.000   0.812   0.000   0.812   0.000   0.000  265.24   88.78    0.00   88.78    0.00    0.00   0.516   0.178   0.060   0.024   0.012   0.014   0.005   0.003   0.000
 1981 014    45  19.80  33.60  23.00 -99.000   5.695   0.000   5.695 -99.000 -99.000 -99.000   0.760   0.000   0.760   0.000   0.000  270.93   89.54    0.00   89.54    0.00    0.00   0.465   0.177   0.060   0.024   0.012   0.014   0.005   0.003   0.000
 1981 015    46  23.80  34.60  23.60 -99.000   6.935   0.000   6.935 -99.000 -99.000 -99.000   0.713   0.000   0.713   0.000   0.000  277.87   90.25    0.00   90.25    0.00    0.00   0.420   0.176   0.060   0.024   0.012   0.014   0.005   0.003   0.000
 1981 016    47  15.90  32.20  22.00 -99.000   4.465   0.000   4.465 -99.000 -99.000 -99.000   0.671   0.000   0.671   0.000   0.000  282.33   90.92    0.00   90.92    0.00    0.00   0.379   0.175   0.060   0.024   0.012   0.014   0.005   0.003   0.000
 1981 017    48  25.60  33.30  21.10 -99.000   7.219   0.000   7.219 -99.000 -99.000 -99.000   0.633   0.000   0.633   0.000   0.000  289.55   91.55    0.00   91.55    0.00    0.00   0.341   0.174   0.060   0.024   0.012   0.014   0.005   0.003   0.000
 1981 018    49  23.60  33.30  21.40 -99.000   6.663   0.000   6.663 -99.000 -99.000 -99.000   0.598   0.000   0.598   0.000   0.000  296.21   92.15    0.00   92.15    0.00    0.00   0.308   0.172   0.060   0.024   0.012   0.014   0.005   0.003   0.000
 1981 019    50  17.80  31.40  20.40 -99.000   4.887   0.000   4.887 -99.000 -99.000 -99.000   0.689   0.000   0.689   0.000   0.000  301.10   92.84    0.00   92.84    0.00    0.00   0.400   0.171   0.060   0.024   0.012   0.014   0.005   0.003   0.000
 1981 020    51  15.10  31.20  21.10 -99.000   4.181   0.000   4.181 -99.000 -99.000 -99.000   0.801   0.000   0.801   0.000   0.000  305.28   93.64    0.00   93.64    0.00    0.00   0.513   0.170   0.060   0.024   0.012   0.014   0.005   0.003   0.000
 1981 021    52  18.20  32.20  20.30 -99.000   5.066   0.000   5.066 -99.000 -99.000 -99.000   1.004   0.000   1.004   0.000   0.000  310.35   94.65    0.00   94.65    0.00    0.00   0.718   0.169   0.060   0.024   0.012   0.014   0.005   0.003   0.000
 1981 022    53  18.10  32.80  21.60 -99.000   5.171   0.000   5.171 -99.000 -99.000 -99.000   1.686   0.000   1.686   0.000   0.000  315.52   96.33    0.00   96.33    0.00    0.00   1.369   0.199   0.060   0.024   0.012   0.014   0.005   0.003   0.000
 1981 023    54  12.30  31.30  21.50 -99.000   3.538   0.000   3.538 -99.000 -99.000 -99.000   3.538   0.000   3.538   0.000   0.000  319.05   99.87    0.00   99.87    0.00    0.00   0.854   0.647   0.489   0.338   0.264   0.438   0.268   0.240   0.000
 1981 024    55  25.10  31.60  22.00 -99.000   7.278   0.000   7.278 -99.000 -99.000 -99.000   7.278   0.000   7.278   0.000   0.000  326.33  107.15    0.00  107.15    0.00    0.00   1.706   1.320   1.039   0.711   0.551   0.902   0.553   0.496   0.000
 1981 025    56  22.80  31.80  21.90 -99.000   6.582   0.000   6.582 -99.000 -99.000 -99.000   6.582   0.000   6.582   0.000   0.000  332.91  113.73    0.00  113.73    0.00    0.00   1.447   1.174   0.950   0.672   0.519   0.841   0.516   0.464   0.000
 1981 026    57  23.10  32.40  21.60 -99.000   6.671   0.000   6.671 -99.000 -99.000 -99.000   4.974   0.000   4.974   0.000   0.000  339.59  118.70    0.00  118.70    0.00    0.00   0.160   0.360   0.527   0.541   0.527   1.094   0.852   0.913   0.000
 1981 027    58  24.70  32.10  20.80 -99.000   7.068   0.000   7.068 -99.000 -99.000 -99.000   4.920   0.000   4.920   0.000   0.000  346.65  123.62    0.00  123.62    0.00    0.00   0.158   0.355   0.522   0.536   0.521   1.082   0.842   0.903   0.000
 1981 028    59  20.10  32.10  22.10 -99.000   5.802   0.000   5.802 -99.000 -99.000 -99.000   4.866   0.000   4.866   0.000   0.000  352.46  128.49    0.00  128.49    0.00    0.00   0.156   0.351   0.517   0.530   0.515   1.071   0.833   0.893   0.000
 1981 029    60  19.20  32.10  21.30 -99.000   5.509   0.000   5.509 -99.000 -99.000 -99.000   1.697   0.000   1.697   0.000   0.000  357.96  130.19    0.00  130.19    0.00    0.00   1.377   0.203   0.061   0.024   0.012   0.013   0.005   0.003   0.000
 1981 030    61  17.70  30.60  21.60 -99.000   4.990   0.000   4.990 -99.000 -99.000 -99.000   4.990   0.000   4.990   0.000   0.000  362.95  135.18    0.00  135.18    0.00    0.00   1.105   0.915   0.736   0.505   0.384   0.621   0.382   0.343   0.000
 1981 031    62  25.00  32.70  20.90 -99.000   7.272   0.000   7.272 -99.000 -99.000 -99.000   7.272   0.000   7.272   0.000   0.000  370.23  142.45    0.00  142.45    0.00    0.00   1.720   1.338   1.065   0.723   0.541   0.869   0.535   0.482   0.000
 1981 032    63  23.10  32.50  21.20 -99.000   6.682   0.000   6.682 -99.000 -99.000 -99.000   6.682   0.000   6.682   0.000   0.000  376.91  149.13    0.00  149.13    0.00    0.00   1.538   1.203   0.984   0.685   0.508   0.811   0.501   0.451   0.000
 1981 033    64  23.80  32.60  21.00 -99.000   6.884   0.000   6.884 -99.000 -99.000 -99.000   6.884   0.000   6.884   0.000   0.000  383.79  156.01    0.00  156.01    0.00    0.00   1.554   1.215   1.015   0.720   0.530   0.849   0.525   0.474   0.000
 1981 034    65  21.20  31.50  21.50 -99.000   6.057   0.001   6.056 -99.000 -99.000 -99.000   1.728   0.001   1.727   0.000   0.000  389.85  157.74    0.00  157.74    0.00    0.00   1.406   0.204   0.062   0.024   0.012   0.012   0.004   0.003   0.000
 1981 035    66  20.60  31.60  20.20 -99.000   5.814   0.011   5.804 -99.000 -99.000 -99.000   1.599   0.011   1.588   0.000   0.000  395.66  159.34    0.01  159.33    0.00    0.00   1.268   0.202   0.062   0.024   0.012   0.012   0.004   0.003   0.001
 1981 036    67  20.40  31.20  20.10 -99.000   5.707   0.028   5.679 -99.000 -99.000 -99.000   1.485   0.024   1.462   0.000   0.000  401.37  160.83    0.04  160.79    0.00    0.00   1.144   0.201   0.062   0.024   0.012   0.012   0.004   0.003   0.002
 1981 037    68  24.80  33.20  21.30 -99.000   7.120   0.066   7.054 -99.000 -99.000 -99.000   1.386   0.038   1.348   0.000   0.000  408.49  162.21    0.07  162.14    0.00    0.00   1.031   0.200   0.062   0.024   0.012   0.012   0.004   0.003   0.004
 1981 038    69  19.70  32.80  21.30 -99.000   5.612   0.082   5.530 -99.000 -99.000 -99.000   1.326   0.057   1.270   0.000   0.000  414.10  163.54    0.13  163.41    0.00    0.00   0.955   0.198   0.062   0.024   0.012   0.012   0.004   0.003   0.006
 1981 039    70  23.70  33.80  21.10 -99.000   6.797   0.142   6.655 -99.000 -99.000 -99.000   1.325   0.082   1.243   0.000   0.000  420.90  164.86    0.21  164.65    0.00    0.00   0.930   0.197   0.062   0.024   0.012   0.012   0.004   0.003   0.008
 1981 040    71  27.60  34.60  20.50 -99.000   7.939   0.223   7.716 -99.000 -99.000 -99.000   1.303   0.108   1.194   0.000   0.000  428.84  166.17    0.32  165.85    0.00    0.00   0.883   0.195   0.062   0.024   0.012   0.012   0.004   0.003   0.011
 1981 041    72  27.40  33.90  19.80 -99.000   7.760   0.274   7.486 -99.000 -99.000 -99.000   1.242   0.137   1.106   0.000   0.000  436.60  167.41    0.46  166.95    0.00    0.00   0.796   0.193   0.061   0.024   0.012   0.012   0.004   0.003   0.014
 1981 042    73  26.50  34.10  21.50 -99.000   7.585   0.325   7.261 -99.000 -99.000 -99.000   1.195   0.170   1.026   0.000   0.000  444.18  168.60    0.63  167.98    0.00    0.00   0.718   0.191   0.061   0.024   0.012   0.012   0.004   0.003   0.017
 1981 043    74  20.40  33.30  20.80 -99.000   5.745   0.290   5.455 -99.000 -99.000 -99.000   1.158   0.204   0.953   0.000   0.000  449.93  169.76    0.83  168.93    0.00    0.00   0.648   0.189   0.061   0.024   0.012   0.012   0.004   0.003   0.020
 1981 044    75  18.70  32.60  22.20 -99.000   5.264   0.308   4.956 -99.000 -99.000 -99.000   1.128   0.240   0.888   0.000   0.000  455.19  170.89    1.07  169.82    0.00    0.00   0.584   0.187   0.061   0.024   0.011   0.012   0.004   0.003   0.024
 1981 045    76  11.80  30.70  22.10 -99.000   3.245   0.216   3.028 -99.000 -99.000 -99.000   1.044   0.216   0.828   0.000   0.000  458.44  171.93    1.29  170.65    0.00    0.00   0.527   0.185   0.061   0.024   0.011   0.012   0.004   0.003   0.022
 1981 046    77  23.70  31.80  21.70 -99.000   6.562   0.465   6.096 -99.000 -99.000 -99.000   1.032   0.258   0.774   0.000   0.000  465.00  172.97    1.54  171.42    0.00    0.00   0.475   0.183   0.061   0.024   0.011   0.012   0.004   0.003   0.026
 1981 047    78  27.20  34.20  21.30 -99.000   7.688   0.567   7.121 -99.000 -99.000 -99.000   1.002   0.277   0.725   0.000   0.000  472.69  173.97    1.82  172.15    0.00    0.00   0.429   0.181   0.060   0.024   0.011   0.012   0.004   0.003   0.028
 1981 048    79  17.70  32.90  22.50 -99.000   4.967   0.397   4.570 -99.000 -99.000 -99.000   0.966   0.285   0.681   0.000   0.000  477.65  174.93    2.11  172.83    0.00    0.00   0.387   0.179   0.060   0.024   0.011   0.012   0.004   0.003   0.028
 1981 049    80  21.20  32.80  22.00 -99.000   5.914   0.493   5.421 -99.000 -99.000 -99.000   0.934   0.293   0.640   0.000   0.000  483.57  175.87    2.40  173.47    0.00    0.00   0.349   0.177   0.060   0.024   0.011   0.012   0.004   0.003   0.029
 1981 050    81  27.00  34.20  19.60 -99.000   7.506   0.651   6.855 -99.000 -99.000 -99.000   0.908   0.305   0.604   0.000   0.000  491.07  176.77    2.70  174.07    0.00    0.00   0.314   0.174   0.060   0.024   0.011   0.012   0.004   0.003   0.030
 1981 051    82  25.60  34.10  20.30 -99.000   7.134   0.648   6.486 -99.000 -99.000 -99.000   0.884   0.314   0.570   0.000   0.000  498.21  177.66    3.02  174.64    0.00    0.00   0.284   0.172   0.059   0.024   0.011   0.012   0.004   0.003   0.031
 1981 052    83  23.60  34.50  22.00 -99.000   6.673   0.631   6.043 -99.000 -99.000 -99.000   0.863   0.323   0.540   0.000   0.000  504.88  178.52    3.34  175.18    0.00    0.00   0.256   0.170   0.059   0.024   0.011   0.012   0.004   0.003   0.032
 1981 053    84  27.00  34.40  20.50 -99.000   7.540   0.741   6.799 -99.000 -99.000 -99.000   0.842   0.330   0.513   0.000   0.000  512.42  179.36    3.67  175.69    0.00    0.00   0.231   0.168   0.059   0.024   0.011   0.012   0.004   0.003   0.033
 1981 054    85  27.00  34.80  21.80 -99.000   7.631   0.773   6.858 -99.000 -99.000 -99.000   0.817   0.329   0.487   0.000   0.000  520.05  180.18    4.00  176.18    0.00    0.00   0.208   0.166   0.059   0.024   0.011   0.012   0.004   0.003   0.033
 1981 055    86  27.30  34.00  21.80 -99.000   7.645   0.801   6.844 -99.000 -99.000 -99.000   0.770   0.305   0.465   0.000   0.000  527.70  180.95    4.30  176.65    0.00    0.00   0.188   0.163   0.058   0.024   0.011   0.012   0.004   0.003   0.031
 1981 056    87  27.60  34.50  21.00 -99.000   7.719   0.836   6.883 -99.000 -99.000 -99.000   0.737   0.293   0.444   0.000   0.000  535.42  181.69    4.60  177.09    0.00    0.00   0.169   0.162   0.058   0.024   0.011   0.012   0.004   0.003   0.029
 1981 057    88  24.20  34.10  22.20 -99.000   6.789   0.767   6.022 -99.000 -99.000 -99.000   0.709   0.284   0.425   0.000   0.000  542.20  182.40    4.88  177.51    0.00    0.00   0.153   0.160   0.058   0.024   0.011   0.012   0.004   0.003   0.028
 1981 058    89  26.80  36.10  22.70 -99.000   8.076   0.943   7.133 -99.000 -99.000 -99.000   0.685   0.277   0.408   0.000   0.000  550.28  183.08    5.16  177.92    0.00    0.00   0.138   0.158   0.058   0.024   0.011   0.012   0.004   0.003   0.028
 1981 059    90  27.10  35.30  20.90 -99.000   7.719   0.929   6.789 -99.000 -99.000 -99.000   0.663   0.270   0.393   0.000   0.000  558.00  183.74    5.43  178.32    0.00    0.00   0.124   0.156   0.057   0.024   0.011   0.012   0.004   0.003   0.027
 1981 060    91  27.00  36.10  22.50 -99.000   8.113   1.001   7.112 -99.000 -99.000 -99.000   0.644   0.265   0.379   0.000   0.000  566.11  184.39    5.69  178.70    0.00    0.00   0.112   0.155   0.057   0.023   0.011   0.012   0.004   0.003   0.027
 1981 061    92  24.80  35.40  20.80 -99.000   7.088   0.894   6.195 -99.000 -99.000 -99.000   0.622   0.256   0.366   0.000   0.000  573.20  185.01    5.95  179.06    0.00    0.00   0.101   0.154   0.057   0.023   0.011   0.012   0.004   0.003   0.026
 1981 062    93  24.50  35.50  19.80 -99.000   6.990   0.890   6.100 -99.000 -99.000 -99.000   0.636   0.252   0.384   0.000   0.000  580.19  185.65    6.20  179.45    0.00    0.00   0.121   0.152   0.057   0.023   0.011   0.012   0.004   0.003   0.025
 1981 063    94  16.50  33.40  21.00 -99.000   4.545   0.588   3.957 -99.000 -99.000 -99.000   0.647   0.247   0.400   0.000   0.000  584.74  186.29    6.45  179.85    0.00    0.00   0.138   0.151   0.056   0.023   0.011   0.012   0.004   0.003   0.025
 1981 064    95  25.70  35.20  21.40 -99.000   7.294   0.956   6.338 -99.000 -99.000 -99.000   0.675   0.251   0.424   0.000   0.000  592.03  186.97    6.70  180.27    0.00    0.00   0.164   0.150   0.056   0.023   0.011   0.012   0.004   0.003   0.025
 1981 065    96  24.10  34.90  23.80 -99.000   6.875   0.930   5.945 -99.000 -99.000 -99.000   0.702   0.257   0.446   0.000   0.000  598.90  187.67    6.96  180.72    0.00    0.00   0.187   0.148   0.056   0.023   0.011   0.012   0.004   0.003   0.026
 1981 066    97  21.10  34.80  24.00 -99.000   6.015   0.840   5.174 -99.000 -99.000 -99.000   0.690   0.264   0.426   0.000   0.000  604.92  188.36    7.22  181.14    0.00    0.00   0.169   0.147   0.056   0.023   0.011   0.012   0.004   0.003   0.026
 1981 067    98  23.20  35.50  24.20 -99.000   6.813   0.982   5.831 -99.000 -99.000 -99.000   0.717   0.270   0.447   0.000   0.000  611.73  189.08    7.49  181.59    0.00    0.00   0.191   0.146   0.055   0.023   0.011   0.012   0.004   0.003   0.027
 1981 068    99  22.90  36.60  24.10 -99.000   7.132   1.061   6.071 -99.000 -99.000 -99.000   0.752   0.285   0.466   0.000   0.000  618.86  189.83    7.77  182.05    0.00    0.00   0.212   0.145   0.055   0.023   0.011   0.012   0.004   0.003   0.029
 1981 069   100  18.30  34.10  24.30 -99.000   5.181   0.807   4.374 -99.000 -99.000 -99.000   0.762   0.288   0.473   0.000   0.000  624.05  190.59    8.06  182.53    0.00    0.00   0.220   0.144   0.055   0.023   0.011   0.012   0.004   0.003   0.029
 1981 070   101  15.40  32.80  23.00 -99.000   4.266   0.679   3.586 -99.000 -99.000 -99.000   0.900   0.302   0.597   0.000   0.000  628.31  191.49    8.37  183.13    0.00    0.00   0.346   0.143   0.054   0.023   0.011   0.012   0.004   0.003   0.030
 1981 071   102  12.30  31.00  22.20 -99.000   3.337   0.553   2.784 -99.000 -99.000 -99.000   1.727   0.319   1.408   0.000   0.000  631.65  193.22    8.68  184.53    0.00    0.00   1.148   0.152   0.054   0.023   0.011   0.012   0.004   0.003   0.032
 1981 072   103   9.70  28.50  22.30 -99.000   2.640   0.455   2.185 -99.000 -99.000 -99.000   2.640   0.455   2.185   0.000   0.000  634.29  195.86    9.14  186.72    0.00    0.00   0.572   0.370   0.282   0.217   0.164   0.266   0.165   0.149   0.045
 1981 073   104   9.50  25.00  21.40 -99.000   2.470   0.442   2.028 -99.000 -99.000 -99.000   2.470   0.442   2.028   0.000   0.000  636.76  198.33    9.58  188.75    0.00    0.00   0.511   0.389   0.284   0.193   0.143   0.233   0.145   0.131   0.044
 1981 074   105  14.80  29.80  21.10 -99.000   4.046   0.751   3.294 -99.000 -99.000 -99.000   3.916   0.622   3.294   0.000   0.000  640.80  202.24   10.20  192.04    0.00    0.00   0.813   0.618   0.510   0.319   0.227   0.369   0.230   0.208   0.062
 1981 075   106  15.60  30.50  21.20 -99.000   4.291   0.828   3.464 -99.000 -99.000 -99.000   4.134   0.671   3.464   0.000   0.000  645.10  206.38   10.87  195.51    0.00    0.00   0.851   0.634   0.541   0.348   0.240   0.389   0.242   0.219   0.067
 1981 076   107  16.50  29.20  21.50 -99.000   4.476   0.909   3.567 -99.000 -99.000 -99.000   4.280   0.714   3.567   0.000   0.000  649.57  210.66   11.59  199.07    0.00    0.00   0.860   0.646   0.551   0.373   0.276   0.395   0.244   0.221   0.071
 1981 077   108  11.70  29.00  21.50 -99.000   3.161   0.674   2.487 -99.000 -99.000 -99.000   3.161   0.674   2.487   0.000   0.000  652.73  213.82   12.26  201.56    0.00    0.00   0.584   0.446   0.378   0.265   0.210   0.289   0.165   0.149   0.067
 1981 078   109  15.70  30.30  21.80 -99.000   4.304   0.969   3.335 -99.000 -99.000 -99.000   4.151   0.815   3.335   0.000   0.000  657.04  217.97   13.08  204.89    0.00    0.00   0.778   0.591   0.501   0.350   0.277   0.413   0.228   0.197   0.082
 1981 079   110  10.10  26.30  20.00 -99.000   2.610   0.607   2.003 -99.000 -99.000 -99.000   2.610   0.607   2.003   0.000   0.000  659.65  220.58   13.68  206.90    0.00    0.00   0.460   0.351   0.298   0.208   0.165   0.250   0.152   0.118   0.061
 1981 080   111  15.50  28.90  20.90 -99.000   4.144   1.015   3.129 -99.000 -99.000 -99.000   4.043   0.914   3.129   0.000   0.000  663.79  224.62   14.60  210.03    0.00    0.00   0.718   0.546   0.461   0.323   0.255   0.387   0.253   0.186   0.091
 1981 081   112  11.60  27.70  21.10 -99.000   3.059   0.772   2.287 -99.000 -99.000 -99.000   3.059   0.772   2.287   0.000   0.000  666.85  227.68   15.37  212.31    0.00    0.00   0.521   0.398   0.337   0.236   0.186   0.283   0.186   0.139   0.077
 1981 082   113  15.20  29.90  21.60 -99.000   4.112   1.094   3.018 -99.000 -99.000 -99.000   4.048   1.030   3.018   0.000   0.000  670.96  231.73   16.40  215.33    0.00    0.00   0.689   0.524   0.443   0.310   0.245   0.372   0.247   0.187   0.103
 1981 083   114  11.10  25.30  20.80 -99.000   2.830   0.782   2.048 -99.000 -99.000 -99.000   2.830   0.782   2.048   0.000   0.000  673.79  234.56   17.18  217.38    0.00    0.00   0.465   0.355   0.300   0.210   0.166   0.253   0.169   0.130   0.078
 1981 084   115  13.00  29.00  21.10 -99.000   3.454   1.006   2.448 -99.000 -99.000 -99.000   3.454   1.006   2.448   0.000   0.000  677.25  238.01   18.19  219.83    0.00    0.00   0.556   0.422   0.357   0.250   0.198   0.300   0.205   0.160   0.101
 1981 085   116  11.00  26.40  20.40 -99.000   2.819   0.851   1.968 -99.000 -99.000 -99.000   2.819   0.851   1.968   0.000   0.000  680.06  240.83   19.04  221.80    0.00    0.00   0.442   0.336   0.284   0.199   0.157   0.239   0.177   0.133   0.085
 1981 086   117  23.30  29.90  20.80 -99.000   6.210   1.963   4.247 -99.000 -99.000 -99.000   5.532   1.285   4.247   0.000   0.000  686.27  246.37   20.32  226.04    0.00    0.00   0.949   0.721   0.610   0.426   0.337   0.512   0.395   0.297   0.129
 1981 087   118  18.20  29.70  21.80 -99.000   4.859   1.598   3.261 -99.000 -99.000 -99.000   4.674   1.413   3.261   0.000   0.000  691.13  251.04   21.74  229.30    0.00    0.00   0.724   0.554   0.467   0.329   0.260   0.396   0.294   0.236   0.141
 1981 088   119  22.10  30.20  20.80 -99.000   5.865   2.073   3.792 -99.000 -99.000 -99.000   5.290   1.499   3.792   0.000   0.000  697.00  256.33   23.24  233.09    0.00    0.00   0.833   0.640   0.539   0.384   0.303   0.473   0.339   0.280   0.150
 1981 089   120  21.40  30.50  20.70 -99.000   5.661   2.102   3.559 -99.000 -99.000 -99.000   5.187   1.628   3.559   0.000   0.000  702.66  261.52   24.86  236.65    0.00    0.00   0.766   0.591   0.505   0.366   0.289   0.454   0.317   0.270   0.163
 1981 090   121  22.80  29.90  21.10 -99.000   5.977   2.366   3.611 -99.000 -99.000 -99.000   5.360   1.749   3.611   0.000   0.000  708.64  266.88   26.61  240.26    0.00    0.00   0.784   0.588   0.507   0.372   0.295   0.467   0.318   0.279   0.175
 1981 091   122  16.10  29.50  21.50 -99.000   4.199   1.760   2.439 -99.000 -99.000 -99.000   4.199   1.760   2.439   0.000   0.000  712.83  271.08   28.37  242.70    0.00    0.00   0.558   0.390   0.335   0.247   0.197   0.314   0.210   0.187   0.176
 1981 092   123  12.50  28.50  20.70 -99.000   3.201   1.415   1.786 -99.000 -99.000 -99.000   3.201   1.415   1.786   0.000   0.000  716.04  274.28   29.79  244.49    0.00    0.00   0.426   0.288   0.240   0.177   0.141   0.228   0.150   0.135   0.142
 1981 093   124  16.30  29.50  20.90 -99.000   4.213   1.940   2.273 -99.000 -99.000 -99.000   4.213   1.940   2.273   0.000   0.000  720.25  278.49   31.73  246.76    0.00    0.00   0.538   0.388   0.307   0.222   0.177   0.287   0.186   0.169   0.194
 1981 094   125  23.90  29.10  20.80 -99.000   6.125   2.924   3.201 -99.000 -99.000 -99.000   5.395   2.194   3.201   0.000   0.000  726.37  283.88   33.92  249.96    0.00    0.00   0.741   0.564   0.455   0.314   0.244   0.396   0.255   0.232   0.219
 1981 095   126  18.20  28.80  20.90 -99.000   4.629   2.324   2.305 -99.000 -99.000 -99.000   4.629   2.324   2.305   0.000   0.000  731.00  288.51   36.25  252.27    0.00    0.00   0.516   0.397   0.338   0.232   0.178   0.291   0.186   0.168   0.232
 1981 096   127  21.20  29.20  21.20 -99.000   5.396   2.836   2.560 -99.000 -99.000 -99.000   5.033   2.473   2.560   0.000   0.000  736.40  293.55   38.72  254.83    0.00    0.00   0.559   0.434   0.373   0.260   0.201   0.332   0.211   0.191   0.247
 1981 097   128  22.40  29.20  20.30 -99.000   5.635   3.083   2.552 -99.000 -99.000 -99.000   5.205   2.654   2.552   0.000   0.000  742.03  298.75   41.37  257.38    0.00    0.00   0.544   0.426   0.370   0.262   0.204   0.339   0.214   0.193   0.265
 1981 098   129  22.30  29.50  20.50 -99.000   5.605   3.212   2.393 -99.000 -99.000 -99.000   5.198   2.805   2.393   0.000   0.000  747.64  303.95   44.18  259.77    0.00    0.00   0.495   0.396   0.346   0.248   0.194   0.325   0.205   0.184   0.281
 1981 099   130  24.20  29.60  18.80 -99.000   5.986   3.557   2.428 -99.000 -99.000 -99.000   5.397   2.968   2.428   0.000   0.000  753.62  309.35   47.15  262.20    0.00    0.00   0.073   0.157   0.246   0.254   0.253   0.545   0.435   0.466   0.297
 1981 100   131  23.60  29.30  19.50 -99.000   5.822   3.595   2.227 -99.000 -99.000 -99.000   4.760   3.095   1.665   0.000   0.000  759.45  314.11   50.24  263.87    0.00    0.00   1.354   0.191   0.062   0.024   0.012   0.014   0.005   0.003   0.310
 1981 101   132  23.30  29.50  19.50 -99.000   5.730   3.657   2.073 -99.000 -99.000 -99.000   4.507   3.016   1.491   0.000   0.000  765.18  318.61   53.26  265.36    0.00    0.00   1.187   0.185   0.061   0.024   0.012   0.014   0.005   0.003   0.302
 1981 102   133  19.80  28.70  19.50 -99.000   4.808   3.145   1.663 -99.000 -99.000 -99.000   4.339   2.988   1.352   0.000   0.000  769.98  322.95   56.24  266.71    0.00    0.00   1.056   0.178   0.059   0.023   0.012   0.014   0.005   0.003   0.299
 1981 103   134  21.80  29.40  20.40 -99.000   5.352   3.575   1.777 -99.000 -99.000 -99.000   4.317   3.080   1.237   0.000   0.000  775.34  327.27   59.32  267.95    0.00    0.00   0.949   0.172   0.058   0.023   0.012   0.014   0.005   0.003   0.308
 1981 104   135  19.90  28.80  20.20 -99.000   4.832   3.294   1.538 -99.000 -99.000 -99.000   4.293   3.159   1.135   0.000   0.000  780.17  331.56   62.48  269.08    0.00    0.00   0.855   0.165   0.057   0.023   0.012   0.014   0.005   0.003   0.316
 1981 105   136  20.60  29.20  20.30 -99.000   5.016   3.468   1.548 -99.000 -99.000 -99.000   3.862   2.820   1.042   0.000   0.000  785.18  335.43   65.30  270.12    0.00    0.00   0.772   0.158   0.056   0.023   0.012   0.014   0.005   0.003   0.282
 1981 106   137  23.20  30.60  20.00 -99.000   5.713   3.995   1.718 -99.000 -99.000 -99.000   3.681   2.720   0.961   0.000   0.000  790.90  339.11   68.02  271.08    0.00    0.00   0.696   0.154   0.055   0.022   0.012   0.014   0.005   0.003   0.272
 1981 107   138  18.30  30.40  19.10 -99.000   4.460   3.148   1.312 -99.000 -99.000 -99.000   3.579   2.691   0.887   0.000   0.000  795.36  342.68   70.71  271.97    0.00    0.00   0.628   0.151   0.053   0.022   0.012   0.014   0.005   0.003   0.269
 1981 108   139  19.90  30.20  21.00 -99.000   4.900   3.485   1.414 -99.000 -99.000 -99.000   3.691   2.673   1.018   0.000   0.000  800.26  346.38   73.39  272.99    0.00    0.00   0.762   0.148   0.052   0.022   0.012   0.014   0.005   0.003   0.267
 1981 109   140  12.60  25.90  20.80 -99.000   2.959   2.116   0.843 -99.000 -99.000 -99.000   2.958   2.116   0.841   0.000   0.000  803.22  349.33   75.50  273.83    0.00    0.00   0.661   0.105   0.037   0.015   0.008   0.010   0.004   0.002   0.212
 1981 110   141  19.00  28.50  20.40 -99.000   4.576   3.296   1.280 -99.000 -99.000 -99.000   3.695   2.559   1.135   0.000   0.000  807.79  353.03   78.06  274.97    0.00    0.00   0.887   0.144   0.050   0.021   0.011   0.014   0.005   0.003   0.256
 1981 111   142  17.00  27.20  20.90 -99.000   4.046   2.926   1.119 -99.000 -99.000 -99.000   3.280   2.235   1.044   0.000   0.000  811.84  356.31   80.30  276.01    0.00    0.00   0.800   0.142   0.049   0.021   0.011   0.014   0.005   0.003   0.224
 1981 112   143  23.50  29.80  19.60 -99.000   5.696   4.133   1.563 -99.000 -99.000 -99.000   2.922   1.959   0.963   0.000   0.000  817.53  359.23   82.26  276.97    0.00    0.00   0.721   0.141   0.048   0.020   0.011   0.014   0.005   0.003   0.196
 1981 113   144  20.90  28.90  20.20 -99.000   5.032   3.667   1.365 -99.000 -99.000 -99.000   2.664   1.774   0.890   0.000   0.000  822.57  361.89   84.03  277.86    0.00    0.00   0.651   0.139   0.047   0.020   0.011   0.013   0.005   0.003   0.177
 1981 114   145  18.30  28.20  20.90 -99.000   4.392   3.208   1.183 -99.000 -99.000 -99.000   2.469   1.646   0.823   0.000   0.000  826.96  364.36   85.68  278.69    0.00    0.00   0.587   0.138   0.047   0.020   0.011   0.013   0.005   0.003   0.165
 1981 115   146  20.60  29.10  21.50 -99.000   5.011   3.669   1.342 -99.000 -99.000 -99.000   2.417   1.482   0.935   0.000   0.000  831.97  366.78   87.16  279.62    0.00    0.00   0.701   0.136   0.046   0.020   0.011   0.013   0.005   0.003   0.148
 1981 116   147  21.00  29.30  20.30 -99.000   5.084   3.730   1.353 -99.000 -99.000 -99.000   2.368   1.332   1.036   0.000   0.000  837.05  369.15   88.49  280.66    0.00    0.00   0.804   0.135   0.046   0.019   0.011   0.013   0.005   0.003   0.133
 1981 117   148  22.10  29.80  20.50 -99.000   5.382   3.958   1.425 -99.000 -99.000 -99.000   2.166   1.210   0.955   0.000   0.000  842.43  371.31   89.70  281.61    0.00    0.00   0.725   0.134   0.045   0.019   0.010   0.013   0.005   0.003   0.121
 1981 118   149  21.10  29.90  19.60 -99.000   5.108   3.759   1.348 -99.000 -99.000 -99.000   2.003   1.121   0.882   0.000   0.000  847.54  373.32   90.82  282.49    0.00    0.00   0.654   0.132   0.045   0.019   0.010   0.013   0.005   0.003   0.112
 1981 119   150  19.60  29.40  19.00 -99.000   4.694   3.463   1.232 -99.000 -99.000 -99.000   1.864   1.047   0.816   0.000   0.000  852.24  375.18   91.87  283.31    0.00    0.00   0.590   0.131   0.045   0.019   0.010   0.013   0.005   0.003   0.105
 1981 120   151  18.40  28.90  20.30 -99.000   4.422   3.269   1.153 -99.000 -99.000 -99.000   1.738   0.981   0.757   0.000   0.000  856.66  376.92   92.85  284.07    0.00    0.00   0.532   0.130   0.044   0.019   0.010   0.013   0.005   0.003   0.098
 1981 121   152  19.70  31.00  19.90 -99.000   4.827   3.573   1.254 -99.000 -99.000 -99.000   1.633   0.930   0.703   0.000   0.000  861.48  378.55   93.78  284.77    0.00    0.00   0.480   0.129   0.044   0.019   0.010   0.013   0.005   0.003   0.093
 1981 122   153  20.80  31.30  19.40 -99.000   5.092   3.776   1.316 -99.000 -99.000 -99.000   1.541   0.886   0.655   0.000   0.000  866.58  380.09   94.67  285.43    0.00    0.00   0.433   0.128   0.044   0.019   0.010   0.013   0.005   0.003   0.089
 1981 123   154  17.70  30.20  21.80 -99.000   4.354   3.234   1.120 -99.000 -99.000 -99.000   1.455   0.844   0.611   0.000   0.000  870.93  381.55   95.51  286.04    0.00    0.00   0.390   0.127   0.044   0.019   0.010   0.013   0.005   0.003   0.084
 1981 124   155  21.60  29.50  19.10 -99.000   5.169   3.842   1.327 -99.000 -99.000 -99.000   1.378   0.807   0.571   0.000   0.000  876.10  382.93   96.32  286.61    0.00    0.00   0.352   0.126   0.043   0.019   0.010   0.013   0.005   0.003   0.081
 1981 125   156  21.40  30.20  19.90 -99.000   5.189   3.860   1.330 -99.000 -99.000 -99.000   1.314   0.779   0.535   0.000   0.000  881.29  384.24   97.10  287.14    0.00    0.00   0.317   0.125   0.043   0.018   0.010   0.013   0.005   0.003   0.078
 1981 126   157  15.20  28.80  18.90 -99.000   3.602   2.682   0.919 -99.000 -99.000 -99.000   1.253   0.749   0.503   0.000   0.000  884.89  385.49   97.84  287.65    0.00    0.00   0.286   0.124   0.043   0.018   0.010   0.013   0.005   0.003   0.075
 1981 127   158  14.60  28.80  19.80 -99.000   3.481   2.595   0.887 -99.000 -99.000 -99.000   1.197   0.724   0.474   0.000   0.000  888.37  386.69   98.57  288.12    0.00    0.00   0.258   0.123   0.043   0.018   0.010   0.013   0.005   0.003   0.072
 1981 128   159  18.00  28.90  19.90 -99.000   4.299   3.206   1.093 -99.000 -99.000 -99.000   1.153   0.705   0.447   0.000   0.000  892.67  387.84   99.27  288.57    0.00    0.00   0.233   0.122   0.043   0.018   0.010   0.013   0.005   0.003   0.071
 1981 129   160  11.80  27.50  19.30 -99.000   2.761   2.062   0.699 -99.000 -99.000 -99.000   1.109   0.686   0.423   0.000   0.000  895.43  388.95   99.96  288.99    0.00    0.00   0.210   0.121   0.043   0.018   0.010   0.013   0.005   0.003   0.069
 1981 130   161   9.00  26.60  19.90 -99.000   2.094   1.565   0.529 -99.000 -99.000 -99.000   1.068   0.667   0.401   0.000   0.000  897.53  390.02  100.63  289.39    0.00    0.00   0.189   0.120   0.042   0.018   0.010   0.013   0.005   0.003   0.067
 1981 131   162  16.40  29.00  19.70 -99.000   3.912   2.927   0.985 -99.000 -99.000 -99.000   1.032   0.651   0.382   0.000   0.000  901.44  391.05  101.28  289.77    0.00    0.00   0.171   0.119   0.042   0.018   0.010   0.013   0.005   0.003   0.065
 1981 132   163  19.90  28.10  17.50 -99.000   4.622   3.460   1.162 -99.000 -99.000 -99.000   1.001   0.637   0.364   0.000   0.000  906.06  392.05  101.91  290.14    0.00    0.00   0.154   0.119   0.042   0.018   0.010   0.013   0.005   0.003   0.064
 1981 133   164  21.70  29.00  17.10 -99.000   5.075   3.802   1.273 -99.000 -99.000 -99.000   0.973   0.626   0.347   0.000   0.000  911.14  393.03  102.54  290.48    0.00    0.00   0.139   0.118   0.042   0.018   0.010   0.013   0.005   0.003   0.063
 1981 134   165  20.80  29.50  18.20 -99.000   4.931   3.698   1.233 -99.000 -99.000 -99.000   0.946   0.613   0.333   0.000   0.000  916.07  393.97  103.15  290.82    0.00    0.00   0.125   0.117   0.042   0.018   0.010   0.013   0.005   0.003   0.061
 1981 135   166  22.40  30.10  17.50 -99.000   5.318   3.990   1.328 -99.000 -99.000 -99.000   0.922   0.603   0.319   0.000   0.000  921.39  394.89  103.76  291.14    0.00    0.00   0.113   0.116   0.042   0.018   0.010   0.013   0.005   0.003   0.060
 1981 136   167  18.00  31.50  20.40 -99.000   4.431   3.326   1.104 -99.000 -99.000 -99.000   0.900   0.593   0.307   0.000   0.000  925.82  395.79  104.35  291.44    0.00    0.00   0.102   0.115   0.041   0.018   0.010   0.013   0.005   0.003   0.059
 1981 137   168  16.90  31.20  19.80 -99.000   4.128   3.100   1.028 -99.000 -99.000 -99.000   0.876   0.580   0.296   0.000   0.000  929.94  396.67  104.93  291.74    0.00    0.00   0.092   0.114   0.041   0.018   0.010   0.013   0.005   0.003   0.058
 1981 138   169  12.50  29.60  20.50 -99.000   3.016   2.264   0.752 -99.000 -99.000 -99.000   0.858   0.572   0.286   0.000   0.000  932.96  397.53  105.50  292.03    0.00    0.00   0.083   0.114   0.041   0.018   0.009   0.013   0.005   0.003   0.057
 1981 139   170  18.80  29.80  19.60 -99.000   4.516   3.390   1.126 -99.000 -99.000 -99.000   0.841   0.564   0.277   0.000   0.000  937.48  398.37  106.07  292.30    0.00    0.00   0.075   0.113   0.041   0.018   0.009   0.013   0.005   0.003   0.056
 1981 140   171  19.30  30.10  19.60 -99.000   4.651   3.493   1.158 -99.000 -99.000 -99.000   0.826   0.557   0.269   0.000   0.000  942.13  399.20  106.62  292.57    0.00    0.00   0.068   0.112   0.041   0.018   0.009   0.013   0.005   0.003   0.056
 1981 141   172  17.60  30.10  18.00 -99.000   4.191   3.148   1.044 -99.000 -99.000 -99.000   0.812   0.551   0.261   0.000   0.000  946.32  400.01  107.17  292.83    0.00    0.00   0.061   0.111   0.041   0.018   0.009   0.013   0.005   0.003   0.055
 1981 142   173  17.20  29.50  19.30 -99.000   4.108   3.085   1.023 -99.000 -99.000 -99.000   0.800   0.546   0.254   0.000   0.000  950.43  400.81  107.72  293.09    0.00    0.00   0.055   0.111   0.041   0.018   0.009   0.013   0.005   0.003   0.055
 1981 143   174  21.00  29.40  17.90 -99.000   4.958   3.724   1.233 -99.000 -99.000 -99.000   0.789   0.541   0.248   0.000   0.000  955.38  401.60  108.26  293.33    0.00    0.00   0.050   0.110   0.041   0.018   0.009   0.013   0.005   0.003   0.054
 1981 144   175  20.40  30.20  16.70 -99.000   4.816   3.618   1.198 -99.000 -99.000 -99.000   0.778   0.536   0.242   0.000   0.000  960.20  402.38  108.80  293.58    0.00    0.00   0.045   0.109   0.040   0.017   0.009   0.013   0.005   0.003   0.054
 1981 145   176  15.10  28.80  19.10 -99.000   3.572   2.683   0.889 -99.000 -99.000 -99.000   0.769   0.532   0.237   0.000   0.000  963.77  403.14  109.33  293.81    0.00    0.00   0.040   0.108   0.040   0.017   0.009   0.013   0.005   0.003   0.053
 1981 146   177  20.00  28.80  17.80 -99.000   4.686   3.518   1.168 -99.000 -99.000 -99.000   0.761   0.529   0.232   0.000   0.000  968.46  403.90  109.86  294.04    0.00    0.00   0.036   0.108   0.040   0.017   0.009   0.013   0.005   0.003   0.053
 1981 147   178  21.20  29.40  18.40 -99.000   5.023   3.770   1.252 -99.000 -99.000 -99.000   0.752   0.525   0.227   0.000   0.000  973.48  404.66  110.38  294.27    0.00    0.00   0.033   0.107   0.040   0.017   0.009   0.013   0.005   0.003   0.053
 1981 148   179  19.40  29.70  18.00 -99.000   4.598   3.449   1.149 -99.000 -99.000 -99.000   0.746   0.523   0.223   0.000   0.000  978.08  405.40  110.91  294.49    0.00    0.00   0.030   0.106   0.040   0.017   0.009   0.013   0.005   0.003   0.052
 1981 149   180  19.40  31.90  18.40 -99.000   4.724   3.539   1.185 -99.000 -99.000 -99.000   0.740   0.520   0.219   0.000   0.000  982.80  406.14  111.43  294.71    0.00    0.00   0.027   0.106   0.040   0.017   0.009   0.013   0.005   0.003   0.052
 1981 150   181  17.50  29.10  20.70 -99.000   4.204   3.143   1.061 -99.000 -99.000 -99.000   0.734   0.518   0.216   0.000   0.000  987.01  406.88  111.94  294.93    0.00    0.00   0.024   0.105   0.040   0.017   0.009   0.013   0.005   0.003   0.052
 1981 151   182  15.30  29.50  21.60 -99.000   3.716   2.774   0.941 -99.000 -99.000 -99.000   0.726   0.513   0.213   0.000   0.000  990.72  407.60  112.46  295.14    0.00    0.00   0.022   0.104   0.040   0.017   0.009   0.013   0.005   0.003   0.051
 1981 152   183  17.70  29.10  19.30 -99.000   4.209   3.133   1.076 -99.000 -99.000 -99.000   0.716   0.506   0.210   0.000   0.000  994.93  408.32  112.96  295.35    0.00    0.00   0.020   0.103   0.040   0.017   0.009   0.013   0.005   0.003   0.051
 1981 153   184  15.10  29.50  18.40 -99.000   3.584   2.660   0.923 -99.000 -99.000 -99.000   0.709   0.502   0.207   0.000   0.000  998.52  409.03  113.47  295.56    0.00    0.00   0.018   0.103   0.040   0.017   0.009   0.013   0.005   0.003   0.050
 1981 154   185  18.60  30.60  17.80 -99.000   4.449   3.294   1.155 -99.000 -99.000 -99.000   0.711   0.507   0.204   0.000   0.000   1003.    410.    114.    296.      0.      0.   0.016   0.102   0.039   0.017   0.009   0.013   0.005   0.003   0.051
 1981 155   186  20.10  32.00  19.30 -99.000   4.935   3.648   1.287 -99.000 -99.000 -99.000   0.715   0.513   0.202   0.000   0.000   1008.    410.    114.    296.      0.      0.   0.014   0.101   0.039   0.017   0.009   0.012   0.005   0.003   0.051
 1981 156   187  16.50  31.20  21.00 -99.000   4.066   3.000   1.067 -99.000 -99.000 -99.000   0.714   0.515   0.200   0.000   0.000   1012.    411.    115.    296.      0.      0.   0.013   0.101   0.039   0.017   0.009   0.012   0.005   0.003   0.051
 1981 157   188  19.50  31.80  21.40 -99.000   4.851   3.566   1.284 -99.000 -99.000 -99.000   0.714   0.517   0.198   0.000   0.000   1017.    412.    116.    296.      0.      0.   0.012   0.100   0.039   0.017   0.009   0.012   0.005   0.003   0.052
 1981 158   189  20.30  31.80  19.20 -99.000   4.973   3.639   1.334 -99.000 -99.000 -99.000   0.714   0.518   0.196   0.000   0.000   1022.    413.    116.    297.      0.      0.   0.011   0.100   0.039   0.017   0.009   0.012   0.004   0.003   0.052
 1981 159   190  15.20  30.00  20.00 -99.000   3.674   2.675   0.999 -99.000 -99.000 -99.000   0.723   0.529   0.194   0.000   0.000   1025.    413.    117.    297.      0.      0.   0.010   0.099   0.039   0.017   0.009   0.012   0.004   0.003   0.053
 1981 160   191  14.50  30.00  19.60 -99.000   3.495   2.539   0.956 -99.000 -99.000 -99.000   0.731   0.539   0.192   0.000   0.000   1029.    414.    117.    297.      0.      0.   0.009   0.098   0.039   0.017   0.009   0.012   0.004   0.003   0.054
 1981 161   192  17.90  29.70  20.10 -99.000   4.316   3.126   1.190 -99.000 -99.000 -99.000   0.740   0.549   0.190   0.000   0.000   1033.    415.    118.    297.      0.      0.   0.008   0.098   0.039   0.017   0.009   0.012   0.004   0.003   0.055
 1981 162   193  19.50  28.70  18.50 -99.000   4.597   3.313   1.283 -99.000 -99.000 -99.000   0.740   0.551   0.189   0.000   0.000   1038.    416.    118.    297.      0.      0.   0.007   0.097   0.039   0.017   0.009   0.012   0.004   0.003   0.055
 1981 163   194  17.90  29.20  18.60 -99.000   4.248   3.044   1.204 -99.000 -99.000 -99.000   0.740   0.552   0.187   0.000   0.000   1042.    416.    119.    298.      0.      0.   0.006   0.096   0.039   0.017   0.009   0.012   0.004   0.003   0.055
 1981 164   195  15.50  29.30  19.00 -99.000   3.694   2.634   1.060 -99.000 -99.000 -99.000   0.749   0.563   0.186   0.000   0.000   1046.    417.    119.    298.      0.      0.   0.006   0.096   0.039   0.017   0.009   0.012   0.004   0.003   0.056
 1981 165   196  16.40  29.20  20.10 -99.000   3.937   2.792   1.145 -99.000 -99.000 -99.000   0.787   0.573   0.213   0.000   0.001   1050.    418.    120.    298.      0.      0.   0.033   0.095   0.038   0.017   0.009   0.012   0.004   0.003   0.057
 1981 166   197  20.10  30.10  19.30 -99.000   4.850   3.404   1.446 -99.000 -99.000 -99.000   0.823   0.584   0.237   0.000   0.001   1055.    419.    120.    298.      0.      0.   0.058   0.095   0.038   0.017   0.009   0.012   0.004   0.003   0.058
 1981 167   198  14.60  29.00  20.40 -99.000   3.510   2.441   1.069 -99.000 -99.000 -99.000   0.818   0.586   0.231   0.000   0.002   1058.    419.    121.    298.      0.      0.   0.053   0.094   0.038   0.017   0.009   0.012   0.004   0.003   0.059
 1981 168   199  18.60  29.90  18.80 -99.000   4.467   3.065   1.402 -99.000 -99.000 -99.000   0.814   0.588   0.225   0.000   0.002   1063.    420.    122.    299.      0.      0.   0.047   0.093   0.038   0.017   0.009   0.012   0.004   0.003   0.059
 1981 169   200  21.30  29.30  16.30 -99.000   4.992   3.369   1.623 -99.000 -99.000 -99.000   0.818   0.597   0.219   0.000   0.002   1068.    421.    122.    299.      0.      0.   0.043   0.093   0.038   0.017   0.009   0.012   0.004   0.003   0.060
 1981 170   201  19.50  29.20  17.60 -99.000   4.613   3.071   1.541 -99.000 -99.000 -99.000   0.818   0.601   0.214   0.000   0.002   1072.    422.    123.    299.      0.      0.   0.039   0.092   0.038   0.017   0.009   0.012   0.004   0.003   0.060
 1981 171   202  20.20  29.30  17.50 -99.000   4.783   3.143   1.639 -99.000 -99.000 -99.000   0.819   0.607   0.210   0.000   0.002   1077.    423.    123.    299.      0.      0.   0.035   0.092   0.038   0.017   0.009   0.012   0.004   0.003   0.061
 1981 172   203  21.10  29.30  15.80 -99.000   4.935   3.201   1.735 -99.000 -99.000 -99.000   0.820   0.612   0.206   0.000   0.002   1082.    424.    124.    299.      0.      0.   0.031   0.091   0.038   0.017   0.009   0.012   0.004   0.003   0.061
 1981 173   204  20.20  29.70  18.30 -99.000   4.840   3.084   1.756 -99.000 -99.000 -99.000   0.791   0.587   0.202   0.000   0.002   1087.    424.    125.    300.      0.      0.   0.028   0.090   0.038   0.017   0.009   0.012   0.004   0.003   0.059
 1981 174   205  19.70  28.30  16.60 -99.000   4.594   2.848   1.746 -99.000 -99.000 -99.000   0.767   0.567   0.198   0.000   0.002   1091.    425.    125.    300.      0.      0.   0.026   0.090   0.038   0.017   0.009   0.012   0.004   0.003   0.057
 1981 175   206  17.30  26.60  17.10 -99.000   3.974   2.415   1.559 -99.000 -99.000 -99.000   0.749   0.552   0.195   0.000   0.002   1095.    426.    126.    300.      0.      0.   0.023   0.089   0.038   0.017   0.009   0.012   0.004   0.003   0.055
 1981 176   207  13.80  25.70  18.50 -99.000   3.174   1.892   1.282 -99.000 -99.000 -99.000   0.731   0.537   0.192   0.000   0.003   1098.    427.    126.    300.      0.      0.   0.021   0.089   0.038   0.017   0.009   0.012   0.004   0.003   0.054
 1981 177   208  14.80  27.70  17.80 -99.000   3.469   2.012   1.457 -99.000 -99.000 -99.000   0.716   0.524   0.189   0.000   0.003   1102.    427.    127.    300.      0.      0.   0.019   0.088   0.038   0.016   0.009   0.012   0.004   0.003   0.052
 1981 178   209  14.60  26.80  17.30 -99.000   3.378   1.900   1.478 -99.000 -99.000 -99.000   0.704   0.514   0.187   0.000   0.003   1105.    428.    127.    301.      0.      0.   0.017   0.087   0.037   0.016   0.009   0.012   0.004   0.003   0.051
 1981 179   210  20.80  28.60  19.00 -99.000   4.979   2.735   2.244 -99.000 -99.000 -99.000   0.686   0.499   0.184   0.000   0.003   1110.    429.    128.    301.      0.      0.   0.015   0.087   0.037   0.016   0.009   0.012   0.004   0.003   0.050
 1981 180   211  19.30  29.10  17.90 -99.000   4.614   2.452   2.162 -99.000 -99.000 -99.000   0.672   0.487   0.182   0.000   0.003   1115.    429.    128.    301.      0.      0.   0.014   0.086   0.037   0.016   0.009   0.012   0.004   0.003   0.049
 1981 181   212  16.50  29.20  17.20 -99.000   3.933   2.018   1.915 -99.000 -99.000 -99.000   0.659   0.476   0.180   0.000   0.003   1119.    430.    129.    301.      0.      0.   0.012   0.086   0.037   0.016   0.009   0.012   0.004   0.003   0.048
 1981 182   213  20.60  30.00  19.20 -99.000   5.034   2.488   2.547 -99.000 -99.000 -99.000   0.650   0.469   0.178   0.000   0.003   1124.    431.    129.    301.      0.      0.   0.011   0.085   0.037   0.016   0.009   0.012   0.004   0.003   0.047
 1981 183   214  18.00  30.00  18.70 -99.000   4.387   2.094   2.293 -99.000 -99.000 -99.000   0.644   0.464   0.177   0.000   0.003   1128.    431.    130.    302.      0.      0.   0.010   0.085   0.037   0.016   0.009   0.012   0.004   0.003   0.046
 1981 184   215  21.20  30.90  16.80 -99.000   5.150   2.384   2.766 -99.000 -99.000 -99.000   0.637   0.459   0.175   0.000   0.003   1133.    432.    130.    302.      0.      0.   0.009   0.084   0.037   0.016   0.009   0.012   0.004   0.003   0.046
 1981 185   216  21.50  29.10  17.00 -99.000   5.132   2.293   2.838 -99.000 -99.000 -99.000   0.625   0.449   0.173   0.000   0.003   1139.    433.    131.    302.      0.      0.   0.008   0.084   0.037   0.016   0.009   0.012   0.004   0.003   0.045
 1981 186   217  12.00  24.30  18.40 -99.000   2.741   1.188   1.553 -99.000 -99.000 -99.000   0.612   0.438   0.172   0.000   0.003   1141.    433.    131.    302.      0.      0.   0.007   0.083   0.037   0.016   0.009   0.012   0.004   0.003   0.044
 1981 187   218  11.00  24.70  18.80 -99.000   2.534   1.073   1.460 -99.000 -99.000 -99.000   0.599   0.426   0.170   0.000   0.003   1144.    434.    132.    302.      0.      0.   0.007   0.083   0.037   0.016   0.009   0.012   0.004   0.003   0.043
 1981 188   219  10.10  24.30  18.50 -99.000   2.311   0.957   1.354 -99.000 -99.000 -99.000   0.591   0.419   0.169   0.000   0.003   1146.    434.    132.    302.      0.      0.   0.006   0.082   0.037   0.016   0.009   0.012   0.004   0.003   0.042
 1981 189   220  12.60  27.20  18.50 -99.000   2.983   1.207   1.776 -99.000 -99.000 -99.000   0.582   0.412   0.168   0.000   0.003   1149.    435.    132.    303.      0.      0.   0.005   0.081   0.037   0.016   0.009   0.012   0.004   0.003   0.041
 1981 190   221  15.60  26.80  18.10 -99.000   3.667   1.453   2.214 -99.000 -99.000 -99.000   0.577   0.408   0.167   0.000   0.003   1153.    436.    133.    303.      0.      0.   0.005   0.081   0.037   0.016   0.009   0.012   0.004   0.003   0.041
 1981 191   222  19.40  29.20  18.80 -99.000   4.710   1.847   2.863 -99.000 -99.000 -99.000   0.572   0.404   0.166   0.000   0.002   1158.    436.    133.    303.      0.      0.   0.004   0.080   0.037   0.016   0.009   0.012   0.004   0.003   0.040
 1981 192   223  21.20  28.90  18.30 -99.000   5.113   1.966   3.148 -99.000 -99.000 -99.000   0.564   0.397   0.164   0.000   0.002   1163.    437.    134.    303.      0.      0.   0.004   0.080   0.037   0.016   0.009   0.012   0.004   0.003   0.040
 1981 193   224  18.00  29.50  18.70 -99.000   4.384   1.661   2.723 -99.000 -99.000 -99.000   0.556   0.390   0.163   0.000   0.002   1167.    437.    134.    303.      0.      0.   0.004   0.079   0.036   0.016   0.009   0.012   0.004   0.003   0.039
 1981 194   225  18.60  30.30  18.60 -99.000   4.568   1.705   2.863 -99.000 -99.000 -99.000   0.548   0.384   0.162   0.000   0.002   1172.    438.    134.    303.      0.      0.   0.003   0.079   0.036   0.016   0.009   0.012   0.004   0.003   0.038
 1981 195   226  14.00  26.20  18.60 -99.000   3.285   1.208   2.077 -99.000 -99.000 -99.000   0.544   0.381   0.162   0.000   0.002   1175.    438.    135.    304.      0.      0.   0.003   0.078   0.036   0.016   0.009   0.012   0.004   0.003   0.038
 1981 196   227  21.70  29.70  17.80 -99.000   5.264   1.930   3.334 -99.000 -99.000 -99.000   0.538   0.376   0.161   0.000   0.002   1180.    439.    135.    304.      0.      0.   0.003   0.078   0.036   0.016   0.009   0.012   0.004   0.003   0.038
 1981 197   228  19.90  29.50  17.60 -99.000   4.809   1.756   3.053 -99.000 -99.000 -99.000   0.534   0.373   0.160   0.000   0.002   1185.    439.    135.    304.      0.      0.   0.002   0.077   0.036   0.016   0.009   0.012   0.004   0.003   0.037
 1981 198   229  20.50  28.90  18.30 -99.000   4.946   1.800   3.146 -99.000 -99.000 -99.000   0.526   0.366   0.159   0.000   0.002   1190.    440.    136.    304.      0.      0.   0.002   0.077   0.036   0.016   0.009   0.012   0.004   0.003   0.037
 1981 199   230  19.70  30.20  18.50 -99.000   4.830   1.741   3.089 -99.000 -99.000 -99.000   0.519   0.359   0.158   0.000   0.001   1195.    440.    136.    304.      0.      0.   0.002   0.076   0.036   0.016   0.009   0.012   0.004   0.003   0.036
 1981 200   231  20.80  29.80  18.00 -99.000   5.059   1.807   3.253 -99.000 -99.000 -99.000   0.512   0.353   0.157   0.000   0.001   1200.    441.    137.    304.      0.      0.   0.002   0.076   0.036   0.016   0.009   0.012   0.004   0.003   0.035
 1981 201   232  21.50  29.50  17.80 -99.000   5.205   1.848   3.356 -99.000 -99.000 -99.000   0.508   0.351   0.156   0.000   0.001   1205.    441.    137.    304.      0.      0.   0.002   0.075   0.036   0.016   0.009   0.012   0.004   0.003   0.035
 1981 202   233  19.80  28.50  17.30 -99.000   4.721   1.673   3.048 -99.000 -99.000 -99.000   0.505   0.348   0.156   0.000   0.001   1210.    442.    137.    305.      0.      0.   0.001   0.075   0.036   0.016   0.009   0.012   0.004   0.003   0.035
 1981 203   234  22.20  30.60  16.00 -99.000   5.367   1.899   3.468 -99.000 -99.000 -99.000   0.500   0.344   0.155   0.000   0.001   1215.    442.    138.    305.      0.      0.   0.001   0.074   0.036   0.016   0.009   0.012   0.004   0.003   0.034
 1981 204   235  18.20  29.20  17.80 -99.000   4.389   1.555   2.835 -99.000 -99.000 -99.000   0.493   0.337   0.154   0.000   0.001   1219.    443.    138.    305.      0.      0.   0.001   0.074   0.036   0.016   0.009   0.012   0.004   0.003   0.034
 1981 205   236  22.30  28.20  16.30 -99.000   5.259   1.848   3.410 -99.000 -99.000 -99.000   0.486   0.331   0.154   0.000   0.001   1225.    443.    138.    305.      0.      0.   0.001   0.073   0.036   0.016   0.009   0.012   0.004   0.003   0.033
 1981 206   237  19.70  29.50  18.70 -99.000   4.800   1.676   3.123 -99.000 -99.000 -99.000   0.479   0.325   0.153   0.000   0.001   1230.    444.    139.    305.      0.      0.   0.001   0.073   0.036   0.016   0.009   0.012   0.004   0.003   0.032
 1981 207   238  21.00  29.30  17.10 -99.000   5.045   1.752   3.293 -99.000 -99.000 -99.000   0.473   0.320   0.152   0.000   0.001   1235.    444.    139.    305.      0.      0.   0.001   0.072   0.036   0.016   0.009   0.012   0.004   0.003   0.032
 1981 208   239  18.80  29.00  16.80 -99.000   4.491   1.560   2.930 -99.000 -99.000 -99.000   0.469   0.317   0.152   0.000   0.001   1239.    445.    139.    306.      0.      0.   0.001   0.072   0.036   0.016   0.009   0.012   0.004   0.003   0.032
 1981 209   240  16.60  27.80  17.80 -99.000   3.941   1.371   2.570 -99.000 -99.000 -99.000   0.465   0.314   0.151   0.000   0.001   1243.    445.    140.    306.      0.      0.   0.001   0.072   0.035   0.016   0.009   0.012   0.004   0.003   0.031
 1981 210   241  20.10  28.40  17.60 -99.000   4.797   1.666   3.131 -99.000 -99.000 -99.000   0.459   0.308   0.150   0.000   0.001   1248.    446.    140.    306.      0.      0.   0.001   0.071   0.035   0.016   0.009   0.012   0.004   0.003   0.031
 1981 211   242  22.60  28.40  17.00 -99.000   5.368   1.862   3.506 -99.000 -99.000 -99.000   0.454   0.303   0.150   0.000   0.001   1253.    446.    140.    306.      0.      0.   0.001   0.071   0.035   0.016   0.009   0.012   0.004   0.003   0.030
 1981 212   243  22.60  28.60  16.00 -99.000   5.340   1.849   3.490 -99.000 -99.000 -99.000   0.448   0.298   0.149   0.000   0.001   1258.    447.    140.    306.      0.      0.   0.001   0.070   0.035   0.016   0.009   0.012   0.004   0.003   0.030
 1981 213   244  22.10  29.10  17.20 -99.000   5.300   1.824   3.476 -99.000 -99.000 -99.000   0.442   0.293   0.148   0.000   0.001   1264.    447.    141.    306.      0.      0.   0.000   0.070   0.035   0.016   0.008   0.012   0.004   0.003   0.029
 1981 214   245  22.60  29.50  17.40 -99.000   5.453   1.863   3.590 -99.000 -99.000 -99.000   0.437   0.289   0.148   0.000   0.000   1269.    448.    141.    306.      0.      0.   0.000   0.069   0.035   0.016   0.008   0.012   0.004   0.003   0.029
 1981 215   246  19.60  28.40  16.60 -99.000   4.643   1.577   3.065 -99.000 -99.000 -99.000   0.434   0.287   0.147   0.000   0.000   1274.    448.    141.    307.      0.      0.   0.000   0.069   0.035   0.016   0.008   0.012   0.004   0.003   0.029
 1981 216   247  19.80  29.30  17.40 -99.000   4.765   1.629   3.137 -99.000 -99.000 -99.000   0.431   0.284   0.147   0.000   0.000   1279.    448.    142.    307.      0.      0.   0.000   0.068   0.035   0.016   0.008   0.012   0.004   0.003   0.028
 1981 217   248  16.30  26.30  18.30 -99.000   3.817   1.310   2.507 -99.000 -99.000 -99.000   0.428   0.282   0.146   0.000   0.000   1282.    449.    142.    307.      0.      0.   0.000   0.068   0.035   0.016   0.008   0.012   0.004   0.003   0.028
 1981 218   249  20.90  28.20  18.20 -99.000   4.997   1.717   3.279 -99.000 -99.000 -99.000   0.448   0.277   0.171   0.000   0.000   1287.    449.    142.    307.      0.      0.   0.026   0.068   0.035   0.016   0.008   0.012   0.004   0.003   0.028
 1981 219   250  22.40  29.80  17.30 -99.000   5.420   1.858   3.562 -99.000 -99.000 -99.000   0.477   0.273   0.193   0.000   0.011   1293.    450.    142.    307.      0.      0.   0.048   0.067   0.035   0.016   0.008   0.012   0.004   0.003   0.027
 1981 220   251  20.10  29.30  19.00 -99.000   4.897   1.678   3.218 -99.000 -99.000 -99.000   0.467   0.270   0.188   0.000   0.009   1298.    450.    143.    307.      0.      0.   0.044   0.067   0.035   0.016   0.008   0.012   0.004   0.003   0.027
 1981 221   252  20.60  29.90  18.50 -99.000   5.033   1.725   3.308 -99.000 -99.000 -99.000   0.457   0.266   0.183   0.000   0.008   1303.    451.    143.    308.      0.      0.   0.039   0.066   0.035   0.016   0.008   0.012   0.004   0.003   0.027
 1981 222   253  19.10  29.20  19.00 -99.000   4.647   1.593   3.054 -99.000 -99.000 -99.000   0.449   0.263   0.179   0.000   0.007   1307.    451.    143.    308.      0.      0.   0.035   0.066   0.035   0.016   0.008   0.012   0.004   0.003   0.026
 1981 223   254  23.00  30.30  18.50 -99.000   5.643   1.929   3.714 -99.000 -99.000 -99.000   0.443   0.262   0.175   0.000   0.006   1313.    452.    143.    308.      0.      0.   0.032   0.065   0.035   0.016   0.008   0.012   0.004   0.003   0.026
 1981 224   255  23.50  29.40  17.60 -99.000   5.669   1.946   3.723 -99.000 -99.000 -99.000   0.435   0.258   0.171   0.000   0.006   1319.    452.    144.    308.      0.      0.   0.029   0.065   0.035   0.016   0.008   0.012   0.004   0.003   0.026
 1981 225   256  23.40  29.80  16.30 -99.000   5.615   1.928   3.686 -99.000 -99.000 -99.000   0.427   0.254   0.168   0.000   0.005   1324.    452.    144.    308.      0.      0.   0.026   0.065   0.035   0.016   0.008   0.012   0.004   0.003   0.025
 1981 226   257  23.10  32.70  15.60 -99.000   5.694   1.956   3.738 -99.000 -99.000 -99.000   0.419   0.250   0.165   0.000   0.004   1330.    453.    144.    308.      0.      0.   0.023   0.064   0.034   0.016   0.008   0.012   0.004   0.003   0.025
 1981 227   258  23.70  35.30  17.30 -99.000   6.163   2.114   4.049 -99.000 -99.000 -99.000   0.413   0.247   0.162   0.000   0.004   1336.    453.    144.    309.      0.      0.   0.021   0.064   0.034   0.016   0.008   0.012   0.004   0.003   0.025
 1981 228   259  22.10  32.00  20.70 -99.000   5.608   1.911   3.698 -99.000 -99.000 -99.000   0.405   0.242   0.159   0.000   0.003   1342.    454.    145.    309.      0.      0.   0.019   0.063   0.034   0.015   0.008   0.012   0.004   0.003   0.024
 1981 229   260  19.20  30.30  19.20 -99.000   4.732   1.610   3.122 -99.000 -99.000 -99.000   0.399   0.239   0.157   0.000   0.003   1347.    454.    145.    309.      0.      0.   0.017   0.063   0.034   0.015   0.008   0.012   0.004   0.003   0.024
 1981 230   261  19.70  30.80  20.50 -99.000   4.927   1.678   3.249 -99.000 -99.000 -99.000   0.395   0.237   0.155   0.000   0.003   1352.    454.    145.    309.      0.      0.   0.016   0.062   0.034   0.015   0.008   0.012   0.004   0.003   0.024
 1981 231   262  21.90  31.80  18.40 -99.000   5.453   1.867   3.586 -99.000 -99.000 -99.000   0.389   0.234   0.153   0.000   0.002   1357.    455.    145.    309.      0.      0.   0.014   0.062   0.034   0.015   0.008   0.012   0.004   0.003   0.023
 1981 232   263  14.20  27.30  19.80 -99.000   3.399   1.159   2.240 -99.000 -99.000 -99.000   0.384   0.231   0.151   0.000   0.002   1360.    455.    146.    309.      0.      0.   0.013   0.062   0.034   0.015   0.008   0.012   0.004   0.003   0.023
 1981 233   264  12.40  27.30  19.80 -99.000   2.968   1.013   1.955 -99.000 -99.000 -99.000   0.420   0.228   0.191   0.000   0.002   1363.    456.    146.    310.      0.      0.   0.053   0.061   0.034   0.015   0.008   0.012   0.004   0.003   0.023
 1981 234   265  21.80  28.10  17.80 -99.000   5.193   1.773   3.420 -99.000 -99.000 -99.000   0.472   0.225   0.227   0.000   0.020   1369.    456.    146.    310.      0.      0.   0.090   0.061   0.034   0.015   0.008   0.012   0.004   0.003   0.022
 1981 235   266  15.30  26.70  18.00 -99.000   3.591   1.227   2.364 -99.000 -99.000 -99.000   0.457   0.222   0.218   0.000   0.017   1372.    457.    146.    310.      0.      0.   0.081   0.060   0.034   0.015   0.008   0.012   0.004   0.003   0.022
 1981 236   267  21.80  31.10  19.80 -99.000   5.445   1.862   3.584 -99.000 -99.000 -99.000   0.445   0.220   0.209   0.000   0.015   1378.    457.    147.    310.      0.      0.   0.073   0.060   0.034   0.015   0.008   0.012   0.004   0.003   0.022
 1981 237   268  21.40  31.30  19.30 -99.000   5.336   1.830   3.506 -99.000 -99.000 -99.000   0.435   0.220   0.202   0.000   0.013   1383.    457.    147.    310.      0.      0.   0.066   0.060   0.034   0.015   0.008   0.012   0.004   0.003   0.022
 1981 238   269  21.00  31.60  20.90 -99.000   5.311   1.841   3.471 -99.000 -99.000 -99.000   0.426   0.220   0.195   0.000   0.012   1388.    458.    147.    311.      0.      0.   0.060   0.059   0.034   0.015   0.008   0.012   0.004   0.003   0.022
 1981 239   270  22.70  32.20  20.30 -99.000   5.753   1.995   3.758 -99.000 -99.000 -99.000   0.416   0.217   0.188   0.000   0.010   1394.    458.    147.    311.      0.      0.   0.054   0.059   0.034   0.015   0.008   0.012   0.004   0.003   0.022
 1981 240   271  24.60  30.60  16.60 -99.000   5.965   2.048   3.917 -99.000 -99.000 -99.000   0.406   0.214   0.183   0.000   0.009   1400.    459.    147.    311.      0.      0.   0.048   0.059   0.034   0.015   0.008   0.012   0.004   0.003   0.021
 1981 241   272  22.10  31.60  17.60 -99.000   5.458   1.861   3.597 -99.000 -99.000 -99.000   0.397   0.211   0.177   0.000   0.008   1405.    459.    148.    311.      0.      0.   0.044   0.058   0.034   0.015   0.008   0.012   0.004   0.003   0.021
 1981 242   273  20.50  32.10  21.40 -99.000   5.231   1.768   3.463 -99.000 -99.000 -99.000   0.389   0.209   0.173   0.000   0.007   1411.    460.    148.    311.      0.      0.   0.039   0.058   0.034   0.015   0.008   0.012   0.004   0.003   0.021
 1981 243   274  24.10  30.30  17.30 -99.000   5.856   1.959   3.897 -99.000 -99.000 -99.000   0.382   0.208   0.168   0.000   0.006   1416.    460.    148.    312.      0.      0.   0.036   0.057   0.034   0.015   0.008   0.012   0.004   0.003   0.021
 1981 244   275  19.00  29.80  19.70 -99.000   4.673   1.553   3.119 -99.000 -99.000 -99.000   0.375   0.205   0.164   0.000   0.006   1421.    460.    148.    312.      0.      0.   0.032   0.057   0.034   0.015   0.008   0.011   0.004   0.003   0.021
 1981 245   276  23.30  31.80  17.00 -99.000   5.743   1.893   3.850 -99.000 -99.000 -99.000   0.368   0.203   0.161   0.000   0.005   1427.    461.    148.    312.      0.      0.   0.029   0.057   0.034   0.015   0.008   0.011   0.004   0.003   0.020
 1981 246   277  23.30  31.10  18.40 -99.000   5.758   1.882   3.875 -99.000 -99.000 -99.000   0.362   0.200   0.158   0.000   0.004   1433.    461.    149.    312.      0.      0.   0.026   0.056   0.033   0.015   0.008   0.011   0.004   0.003   0.020
 1981 247   278  24.00  32.70  17.10 -99.000   5.978   1.937   4.041 -99.000 -99.000 -99.000   0.356   0.198   0.155   0.000   0.004   1439.    461.    149.    312.      0.      0.   0.024   0.056   0.033   0.015   0.008   0.011   0.004   0.003   0.020
 1981 248   279  24.90  34.10  18.20 -99.000   6.346   2.038   4.308 -99.000 -99.000 -99.000   0.351   0.195   0.152   0.000   0.003   1445.    462.    149.    312.      0.      0.   0.021   0.056   0.033   0.015   0.008   0.011   0.004   0.003   0.020
 1981 249   280  22.90  31.90  20.50 -99.000   5.797   1.828   3.969 -99.000 -99.000 -99.000   0.345   0.193   0.149   0.000   0.003   1451.    462.    149.    312.      0.      0.   0.019   0.055   0.033   0.015   0.008   0.011   0.004   0.003   0.019
 1981 250   281  23.70  31.80  18.10 -99.000   5.891   1.836   4.055 -99.000 -99.000 -99.000   0.342   0.192   0.147   0.000   0.003   1457.    462.    149.    313.      0.      0.   0.017   0.055   0.033   0.015   0.008   0.011   0.004   0.003   0.019
 1981 251   282  17.50  27.90  18.70 -99.000   4.184   1.298   2.887 -99.000 -99.000 -99.000   0.337   0.190   0.145   0.000   0.002   1461.    463.    150.    313.      0.      0.   0.016   0.055   0.033   0.015   0.008   0.011   0.004   0.003   0.019
 1981 252   283  15.50  27.60  19.10 -99.000   3.705   1.139   2.566 -99.000 -99.000 -99.000   0.333   0.187   0.143   0.000   0.002   1465.    463.    150.    313.      0.      0.   0.014   0.054   0.033   0.015   0.008   0.011   0.004   0.003   0.019
 1981 253   284  19.60  29.20  19.30 -99.000   4.777   1.455   3.322 -99.000 -99.000 -99.000   0.328   0.185   0.141   0.000   0.002   1469.    463.    150.    313.      0.      0.   0.013   0.054   0.033   0.015   0.008   0.011   0.004   0.003   0.019
 1981 254   285  21.20  30.30  18.20 -99.000   5.190   1.549   3.641 -99.000 -99.000 -99.000   0.324   0.183   0.139   0.000   0.002   1475.    464.    150.    313.      0.      0.   0.011   0.053   0.033   0.015   0.008   0.011   0.004   0.003   0.018
 1981 255   286  13.50  28.60  18.90 -99.000   3.260   0.964   2.296 -99.000 -99.000 -99.000   0.321   0.182   0.138   0.000   0.002   1478.    464.    150.    313.      0.      0.   0.010   0.053   0.033   0.015   0.008   0.011   0.004   0.003   0.018
 1981 256   287  25.10  31.90  18.90 -99.000   6.284   1.842   4.443 -99.000 -99.000 -99.000   0.318   0.180   0.136   0.000   0.001   1484.    464.    151.    313.      0.      0.   0.009   0.053   0.033   0.015   0.008   0.011   0.004   0.003   0.018
 1981 257   288  22.50  30.20  19.20 -99.000   5.543   1.607   3.936 -99.000 -99.000 -99.000   0.316   0.180   0.135   0.000   0.001   1490.    465.    151.    314.      0.      0.   0.008   0.052   0.033   0.015   0.008   0.011   0.004   0.003   0.018
 1981 258   289  24.50  32.90  18.20 -99.000   6.169   1.782   4.388 -99.000 -99.000 -99.000   0.315   0.180   0.134   0.000   0.001   1496.    465.    151.    314.      0.      0.   0.008   0.052   0.033   0.015   0.008   0.011   0.004   0.003   0.018
 1981 259   290  24.50  34.60  19.30 -99.000   6.330   1.814   4.516 -99.000 -99.000 -99.000   0.311   0.178   0.133   0.000   0.001   1502.    465.    151.    314.      0.      0.   0.007   0.052   0.033   0.015   0.008   0.011   0.004   0.003   0.018
 1981 260   291  25.20  33.20  19.30 -99.000   6.417   1.816   4.601 -99.000 -99.000 -99.000   0.308   0.175   0.132   0.000   0.001   1509.    466.    151.    314.      0.      0.   0.006   0.051   0.033   0.015   0.008   0.011   0.004   0.003   0.018
 1981 261   292  23.40  31.70  21.00 -99.000   5.936   1.659   4.277 -99.000 -99.000 -99.000   0.305   0.173   0.131   0.000   0.001   1514.    466.    151.    314.      0.      0.   0.006   0.051   0.033   0.015   0.008   0.011   0.004   0.003   0.017
 1981 262   293  18.90  30.00  20.00 -99.000   4.674   1.290   3.384 -99.000 -99.000 -99.000   0.302   0.171   0.130   0.000   0.001   1519.    466.    152.    314.      0.      0.   0.005   0.051   0.033   0.015   0.008   0.011   0.004   0.003   0.017
 1981 263   294  22.00  31.30  19.90 -99.000   5.514   1.505   4.009 -99.000 -99.000 -99.000   0.299   0.170   0.129   0.000   0.001   1525.    467.    152.    314.      0.      0.   0.005   0.050   0.033   0.015   0.008   0.011   0.004   0.003   0.017
 1981 264   295  25.30  27.20  17.90 -99.000   5.970   1.620   4.350 -99.000 -99.000 -99.000   0.298   0.169   0.128   0.000   0.001   1531.    467.    152.    315.      0.      0.   0.004   0.050   0.033   0.015   0.008   0.011   0.004   0.003   0.017
 1981 265   296  22.60  32.80  18.90 -99.000   5.715   1.551   4.164 -99.000 -99.000 -99.000   0.295   0.167   0.127   0.000   0.001   1536.    467.    152.    315.      0.      0.   0.004   0.050   0.033   0.015   0.008   0.011   0.004   0.003   0.017
 1981 266   297  20.60  31.80  21.00 -99.000   5.232   1.402   3.830 -99.000 -99.000 -99.000   0.292   0.165   0.126   0.000   0.001   1542.    467.    152.    315.      0.      0.   0.003   0.049   0.033   0.015   0.008   0.011   0.004   0.003   0.017
 1981 267   298  21.90  31.20  19.50 -99.000   5.468   1.448   4.020 -99.000 -99.000 -99.000   0.290   0.163   0.126   0.000   0.001   1547.    468.    152.    315.      0.      0.   0.003   0.049   0.032   0.015   0.008   0.011   0.004   0.003   0.016
 1981 268   299  24.20  31.50  19.20 -99.000   6.049   1.585   4.465 -99.000 -99.000 -99.000   0.287   0.162   0.125   0.000   0.001   1553.    468.    153.    315.      0.      0.   0.003   0.049   0.032   0.015   0.008   0.011   0.004   0.003   0.016
 1981 269   300  25.10  32.80  19.20 -99.000   6.363   1.649   4.714 -99.000 -99.000 -99.000   0.285   0.160   0.124   0.000   0.001   1559.    468.    153.    315.      0.      0.   0.002   0.049   0.032   0.015   0.008   0.011   0.004   0.003   0.016
 1981 270   301  24.60  32.90  20.10 -99.000   6.284   1.605   4.678 -99.000 -99.000 -99.000   0.283   0.159   0.124   0.000   0.000   1566.    469.    153.    315.      0.      0.   0.002   0.048   0.032   0.015   0.008   0.011   0.004   0.003   0.016
 1981 271   302  22.20  32.90  19.80 -99.000   5.659   1.428   4.231 -99.000 -99.000 -99.000   0.282   0.158   0.123   0.000   0.000   1571.    469.    153.    315.      0.      0.   0.002   0.048   0.032   0.015   0.008   0.011   0.004   0.003   0.016
 1981 272   303  21.00  32.50  19.50 -99.000   5.319   1.334   3.985 -99.000 -99.000 -99.000   0.280   0.157   0.123   0.000   0.000   1577.    469.    153.    316.      0.      0.   0.002   0.048   0.032   0.015   0.008   0.011   0.004   0.003   0.016
 1981 273   304  24.50  34.50  19.70 -99.000   6.347   1.572   4.775 -99.000 -99.000 -99.000   0.277   0.155   0.122   0.000   0.000   1583.    469.    153.    316.      0.      0.   0.002   0.047   0.032   0.015   0.008   0.011   0.004   0.003   0.016
 1981 274   305  21.20  34.80  18.00 -99.000   5.445   1.329   4.116 -99.000 -99.000 -99.000   0.275   0.154   0.121   0.000   0.000   1588.    470.    154.    316.      0.      0.   0.001   0.047   0.032   0.015   0.008   0.011   0.004   0.003   0.015
 1981 275   306  13.70  28.20  23.10 -99.000   3.400   0.826   2.574 -99.000 -99.000 -99.000   0.272   0.151   0.121   0.000   0.000   1592.    470.    154.    316.      0.      0.   0.001   0.047   0.032   0.015   0.008   0.011   0.004   0.003   0.015
 1981 276   307  14.30  29.50  21.80 -99.000   3.566   0.857   2.709 -99.000 -99.000 -99.000   0.270   0.149   0.120   0.000   0.000   1595.    470.    154.    316.      0.      0.   0.001   0.046   0.032   0.015   0.008   0.011   0.004   0.003   0.015
 1981 277   308  23.50  32.30  21.20 -99.000   6.013   1.429   4.584 -99.000 -99.000 -99.000   0.270   0.149   0.120   0.000   0.000   1601.    470.    154.    316.      0.      0.   0.001   0.046   0.032   0.015   0.008   0.011   0.004   0.003   0.015
 1981 278   309  24.90  33.70  20.90 -99.000   6.452   1.525   4.927 -99.000 -99.000 -99.000   0.269   0.149   0.119   0.000   0.000   1608.    471.    154.    316.      0.      0.   0.001   0.046   0.032   0.015   0.008   0.011   0.004   0.003   0.015
 1981 279   310  22.10  32.30  21.30 -99.000   5.658   1.328   4.330 -99.000 -99.000 -99.000   0.267   0.148   0.119   0.000   0.000   1614.    471.    154.    316.      0.      0.   0.001   0.045   0.032   0.015   0.008   0.011   0.004   0.003   0.015
 1981 280   311  25.70  34.70  20.40 -99.000   6.706   1.554   5.151 -99.000 -99.000 -99.000   0.265   0.146   0.119   0.000   0.000   1620.    471.    154.    316.      0.      0.   0.001   0.045   0.032   0.015   0.008   0.011   0.004   0.003   0.015
[...]
 1982 237   633  21.40  31.60  20.80 -99.000   5.677   0.351   5.326 -99.000 -99.000 -99.000   0.205   0.023   0.179   0.000   0.003   3496.    803.     80.    723.      0.      0.   0.036   0.070   0.037   0.014   0.007   0.010   0.004   0.003   0.002
 1982 238   634  24.00  30.40  19.20 -99.000   6.213   0.382   5.830 -99.000 -99.000 -99.000   0.200   0.022   0.175   0.000   0.003   3503.    803.     80.    723.      0.      0.   0.032   0.070   0.037   0.014   0.007   0.010   0.004   0.003   0.002
 1982 239   635  20.10  31.00  20.50 -99.000   5.286   0.326   4.960 -99.000 -99.000 -99.000   0.196   0.022   0.172   0.000   0.002   3508.    803.     80.    723.      0.      0.   0.029   0.069   0.037   0.014   0.007   0.010   0.004   0.003   0.002
 1982 240   636  21.10  30.90  20.60 -99.000   5.546   0.349   5.197 -99.000 -99.000 -99.000   0.193   0.022   0.168   0.000   0.002   3513.    803.     80.    724.      0.      0.   0.026   0.069   0.037   0.014   0.007   0.010   0.004   0.003   0.002
 1982 241   637  22.40  31.30  20.30 -99.000   5.899   0.376   5.523 -99.000 -99.000 -99.000   0.190   0.022   0.165   0.000   0.002   3519.    804.     80.    724.      0.      0.   0.024   0.068   0.037   0.014   0.007   0.010   0.004   0.003   0.002
 1982 242   638  19.80  30.30  20.80 -99.000   5.177   0.332   4.844 -99.000 -99.000 -99.000   0.187   0.022   0.162   0.000   0.002   3525.    804.     80.    724.      0.      0.   0.021   0.068   0.037   0.014   0.007   0.010   0.004   0.003   0.002
 1982 243   639  20.70  31.50  20.80 -99.000   5.481   0.354   5.128 -99.000 -99.000 -99.000   0.184   0.022   0.160   0.000   0.002   3530.    804.     80.    724.      0.      0.   0.019   0.067   0.037   0.014   0.007   0.010   0.004   0.003   0.002
 1982 244   640  22.00  32.60  22.10 -99.000   5.947   0.386   5.561 -99.000 -99.000 -99.000   0.181   0.022   0.157   0.000   0.002   3536.    804.     80.    724.      0.      0.   0.017   0.067   0.037   0.014   0.007   0.010   0.004   0.003   0.002
 1982 245   641  23.10  34.30  22.10 -99.000   6.355   0.414   5.941 -99.000 -99.000 -99.000   0.179   0.022   0.155   0.000   0.002   3542.    804.     80.    724.      0.      0.   0.016   0.066   0.036   0.014   0.007   0.010   0.004   0.003   0.002
 1982 246   642  21.20  31.30  20.20 -99.000   5.576   0.367   5.209 -99.000 -99.000 -99.000   0.177   0.022   0.153   0.000   0.002   3548.    805.     80.    724.      0.      0.   0.014   0.066   0.036   0.014   0.007   0.010   0.004   0.003   0.002
 1982 247   643  21.20  31.90  19.90 -99.000   5.599   0.374   5.225 -99.000 -99.000 -99.000   0.175   0.022   0.151   0.000   0.001   3553.    805.     80.    725.      0.      0.   0.013   0.066   0.036   0.014   0.007   0.010   0.004   0.003   0.002
 1982 248   644  17.90  30.60  20.50 -99.000   4.682   0.313   4.369 -99.000 -99.000 -99.000   0.172   0.021   0.150   0.000   0.001   3558.    805.     80.    725.      0.      0.   0.011   0.065   0.036   0.014   0.007   0.010   0.004   0.003   0.002
 1982 249   645  23.70  33.40  19.40 -99.000   6.337   0.424   5.913 -99.000 -99.000 -99.000   0.170   0.021   0.148   0.000   0.001   3564.    805.     80.    725.      0.      0.   0.010   0.065   0.036   0.014   0.007   0.010   0.004   0.003   0.002
 1982 250   646  19.60  30.90  21.10 -99.000   5.165   0.345   4.820 -99.000 -99.000 -99.000   0.169   0.021   0.147   0.000   0.001   3570.    805.     80.    725.      0.      0.   0.009   0.064   0.036   0.014   0.007   0.010   0.004   0.003   0.002
 1982 251   647  19.00  30.50  21.00 -99.000   4.982   0.333   4.649 -99.000 -99.000 -99.000   0.167   0.021   0.145   0.000   0.001   3575.    805.     80.    725.      0.      0.   0.008   0.064   0.036   0.014   0.007   0.010   0.004   0.003   0.002
 1982 252   648  17.80  28.10  19.80 -99.000   4.506   0.298   4.209 -99.000 -99.000 -99.000   0.166   0.021   0.144   0.000   0.001   3579.    806.     80.    725.      0.      0.   0.008   0.063   0.036   0.014   0.007   0.010   0.004   0.003   0.002
 1982 253   649  15.50  30.70  20.30 -99.000   4.053   0.265   3.788 -99.000 -99.000 -99.000   0.164   0.021   0.143   0.000   0.001   3583.    806.     80.    725.      0.      0.   0.007   0.063   0.036   0.014   0.007   0.010   0.004   0.003   0.002
 1982 254   650  20.20  29.80  20.30 -99.000   5.230   0.336   4.895 -99.000 -99.000 -99.000   0.163   0.021   0.141   0.000   0.001   3588.    806.     80.    726.      0.      0.   0.006   0.063   0.036   0.014   0.007   0.010   0.004   0.003   0.002
 1982 255   651  18.80  31.00  20.20 -99.000   4.928   0.312   4.617 -99.000 -99.000 -99.000   0.162   0.021   0.140   0.000   0.001   3593.    806.     80.    726.      0.      0.   0.006   0.062   0.036   0.014   0.007   0.010   0.004   0.003   0.002
 1982 256   652  23.10  33.90  20.50 -99.000   6.258   0.389   5.869 -99.000 -99.000 -99.000   0.161   0.021   0.139   0.000   0.001   3600.    806.     80.    726.      0.      0.   0.005   0.062   0.036   0.014   0.007   0.010   0.004   0.003   0.002
 1982 257   653  21.20  32.10  21.80 -99.000   5.687   0.349   5.339 -99.000 -99.000 -99.000   0.160   0.021   0.138   0.000   0.001   3605.    806.     80.    726.      0.      0.   0.005   0.061   0.036   0.014   0.007   0.010   0.004   0.003   0.002
 1982 258   654  19.80  31.80  21.60 -99.000   5.287   0.330   4.956 -99.000 -99.000 -99.000   0.159   0.021   0.138   0.000   0.001   3611.    807.     80.    726.      0.      0.   0.004   0.061   0.036   0.014   0.007   0.010   0.004   0.003   0.002
 1982 259   655  22.10  31.10  21.40 -99.000   5.848   0.372   5.476 -99.000 -99.000 -99.000   0.158   0.021   0.137   0.000   0.001   3616.    807.     80.    726.      0.      0.   0.004   0.061   0.036   0.014   0.007   0.010   0.004   0.003   0.002
 1982 260   656  18.30  32.00  21.90 -99.000   4.905   0.317   4.589 -99.000 -99.000 -99.000   0.157   0.020   0.136   0.000   0.001   3621.    807.     80.    726.      0.      0.   0.003   0.060   0.036   0.014   0.007   0.009   0.004   0.003   0.002
 1982 261   657  19.20  32.40  21.80 -99.000   5.165   0.333   4.831 -99.000 -99.000 -99.000   0.156   0.020   0.135   0.000   0.001   3626.    807.     80.    727.      0.      0.   0.003   0.060   0.036   0.014   0.007   0.009   0.004   0.003   0.002
 1982 262   658  23.70  34.30  21.30 -99.000   6.480   0.418   6.062 -99.000 -99.000 -99.000   0.155   0.020   0.134   0.000   0.001   3633.    807.     80.    727.      0.      0.   0.003   0.060   0.036   0.014   0.007   0.009   0.004   0.003   0.002
 1982 263   659  24.10  35.80  21.30 -99.000   6.937   0.430   6.507 -99.000 -99.000 -99.000   0.154   0.020   0.134   0.000   0.001   3640.    807.     80.    727.      0.      0.   0.002   0.059   0.036   0.014   0.007   0.009   0.004   0.003   0.002
 1982 264   660  16.50  30.90  23.20 -99.000   4.414   0.261   4.154 -99.000 -99.000 -99.000   0.198   0.019   0.178   0.000   0.001   3644.    807.     80.    727.      0.      0.   0.048   0.059   0.035   0.014   0.007   0.009   0.004   0.003   0.002
 1982 265   661  21.30  31.80  22.10 -99.000   5.722   0.323   5.399 -99.000 -99.000 -99.000   0.243   0.020   0.219   0.000   0.005   3650.    808.     80.    727.      0.      0.   0.088   0.058   0.035   0.014   0.007   0.009   0.004   0.003   0.002
 1982 266   662  19.50  30.40  21.60 -99.000   5.142   0.282   4.860 -99.000 -99.000 -99.000   0.234   0.020   0.210   0.000   0.005   3655.    808.     80.    727.      0.      0.   0.080   0.058   0.035   0.014   0.007   0.009   0.004   0.003   0.002
 1982 267   663  18.50  29.90  21.00 -99.000   4.830   0.263   4.567 -99.000 -99.000 -99.000   0.226   0.020   0.201   0.000   0.005   3660.    808.     80.    728.      0.      0.   0.072   0.058   0.035   0.014   0.007   0.009   0.004   0.003   0.002
 1982 268   664  20.40  31.10  20.60 -99.000   5.378   0.299   5.080 -99.000 -99.000 -99.000   0.218   0.020   0.194   0.000   0.004   3665.    808.     80.    728.      0.      0.   0.065   0.057   0.035   0.014   0.007   0.009   0.004   0.003   0.002
 1982 269   665  24.50  32.10  20.90 -99.000   6.540   0.370   6.170 -99.000 -99.000 -99.000   0.211   0.020   0.187   0.000   0.004   3672.    809.     80.    728.      0.      0.   0.059   0.057   0.035   0.014   0.007   0.009   0.004   0.003   0.002
 1982 270   666  22.40  32.80  21.30 -99.000   6.040   0.348   5.691 -99.000 -99.000 -99.000   0.204   0.020   0.181   0.000   0.004   3678.    809.     80.    728.      0.      0.   0.053   0.057   0.035   0.014   0.007   0.009   0.004   0.003   0.002
 1982 271   667  24.90  34.90  20.30 -99.000   6.813   0.400   6.413 -99.000 -99.000 -99.000   0.198   0.020   0.175   0.000   0.004   3685.    809.     80.    728.      0.      0.   0.048   0.056   0.035   0.014   0.007   0.009   0.004   0.003   0.002
 1982 272   668  20.40  34.30  23.20 -99.000   5.657   0.338   5.319 -99.000 -99.000 -99.000   0.193   0.019   0.170   0.000   0.003   3690.    809.     80.    729.      0.      0.   0.043   0.056   0.035   0.014   0.007   0.009   0.004   0.003   0.002
 1982 273   669  12.70  30.60  21.00 -99.000   3.336   0.198   3.138 -99.000 -99.000 -99.000   0.215   0.019   0.193   0.000   0.003   3694.    809.     80.    729.      0.      0.   0.066   0.055   0.035   0.014   0.007   0.009   0.004   0.003   0.002
 1982 274   670  22.90  32.00  21.40 -99.000   6.133   0.349   5.784 -99.000 -99.000 -99.000   0.238   0.019   0.214   0.000   0.005   3700.    810.     80.    729.      0.      0.   0.087   0.055   0.035   0.014   0.007   0.009   0.004   0.003   0.002
 1982 275   671  17.80  27.50  20.10 -99.000   4.496   0.244   4.252 -99.000 -99.000 -99.000   0.229   0.019   0.205   0.000   0.005   3704.    810.     80.    729.      0.      0.   0.079   0.055   0.035   0.014   0.007   0.009   0.004   0.003   0.002
 1982 276   672  24.60  31.60  20.20 -99.000   6.504   0.340   6.164 -99.000 -99.000 -99.000   0.220   0.018   0.197   0.000   0.005   3711.    810.     80.    729.      0.      0.   0.071   0.054   0.035   0.014   0.007   0.009   0.004   0.003   0.002
 1982 277   673  25.10  35.00  20.70 -99.000   6.902   0.344   6.557 -99.000 -99.000 -99.000   0.212   0.018   0.189   0.000   0.004   3718.    810.     80.    730.      0.      0.   0.064   0.054   0.035   0.014   0.007   0.009   0.004   0.003   0.002
 1982 278   674  19.70  32.80  20.60 -99.000   5.290   0.252   5.038 -99.000 -99.000 -99.000   0.205   0.018   0.183   0.000   0.004   3723.    811.     80.    730.      0.      0.   0.058   0.054   0.035   0.014   0.007   0.009   0.004   0.003   0.002
 1982 279   675  22.50  34.50  22.20 -99.000   6.216   0.303   5.913 -99.000 -99.000 -99.000   0.199   0.018   0.177   0.000   0.004   3729.    811.     80.    730.      0.      0.   0.052   0.053   0.035   0.014   0.007   0.009   0.004   0.003   0.002
 1982 280   676  23.30  33.30  21.00 -99.000   6.304   0.314   5.990 -99.000 -99.000 -99.000   0.193   0.018   0.171   0.000   0.004   3736.    811.     81.    730.      0.      0.   0.047   0.053   0.035   0.014   0.007   0.009   0.004   0.003   0.002
 1982 281   677  23.00  33.90  21.90 -99.000   6.300   0.320   5.979 -99.000 -99.000 -99.000   0.187   0.018   0.166   0.000   0.003   3742.    811.     81.    730.      0.      0.   0.042   0.053   0.035   0.014   0.007   0.009   0.004   0.003   0.002
 1982 282   678  25.60  33.80  20.50 -99.000   6.935   0.360   6.575 -99.000 -99.000 -99.000   0.182   0.018   0.161   0.000   0.003   3749.    811.     81.    730.      0.      0.   0.038   0.052   0.035   0.014   0.007   0.009   0.004   0.003   0.002
 1982 283   679  25.90  34.80  21.00 -99.000   7.113   0.376   6.736 -99.000 -99.000 -99.000   0.178   0.018   0.157   0.000   0.003   3756.    811.     81.    731.      0.      0.   0.035   0.052   0.035   0.014   0.007   0.009   0.004   0.003   0.002
 1982 284   680  25.70  35.10  21.00 -99.000   7.111   0.382   6.728 -99.000 -99.000 -99.000   0.174   0.018   0.154   0.000   0.003   3763.    812.     81.    731.      0.      0.   0.031   0.052   0.034   0.014   0.007   0.009   0.004   0.003   0.002
 1982 285   681  24.90  36.00  21.90 -99.000   7.281   0.381   6.900 -99.000 -99.000 -99.000   0.170   0.017   0.150   0.000   0.003   3770.    812.     81.    731.      0.      0.   0.028   0.051   0.034   0.013   0.007   0.009   0.004   0.003   0.002
 1982 286   682  25.30  34.80  21.80 -99.000   6.986   0.348   6.638 -99.000 -99.000 -99.000   0.167   0.017   0.147   0.000   0.002   3777.    812.     81.    731.      0.      0.   0.025   0.051   0.034   0.013   0.007   0.009   0.004   0.003   0.002
 1982 287   683  23.40  35.50  23.30 -99.000   6.724   0.319   6.406 -99.000 -99.000 -99.000   0.163   0.017   0.144   0.000   0.002   3784.    812.     81.    731.      0.      0.   0.023   0.051   0.034   0.013   0.007   0.009   0.004   0.003   0.002
 1982 288   684  21.00  32.70  22.40 -99.000   5.700   0.255   5.444 -99.000 -99.000 -99.000   0.160   0.017   0.141   0.000   0.002   3790.    812.     81.    731.      0.      0.   0.021   0.050   0.034   0.013   0.007   0.009   0.004   0.003   0.002
 1982 289   685  26.40  34.20  22.80 -99.000   7.296   0.325   6.971 -99.000 -99.000 -99.000   0.158   0.017   0.139   0.000   0.002   3797.    812.     81.    731.      0.      0.   0.019   0.050   0.034   0.013   0.007   0.009   0.004   0.003   0.002
 1982 290   686  25.00  32.70  20.80 -99.000   6.709   0.299   6.409 -99.000 -99.000 -99.000   0.155   0.017   0.137   0.000   0.002   3804.    813.     81.    732.      0.      0.   0.017   0.050   0.034   0.013   0.007   0.009   0.004   0.003   0.002
 1982 291   687  27.00  34.80  20.30 -99.000   7.379   0.337   7.042 -99.000 -99.000 -99.000   0.153   0.017   0.135   0.000   0.002   3811.    813.     81.    732.      0.      0.   0.015   0.049   0.034   0.013   0.007   0.009   0.004   0.003   0.002
 1982 292   688  26.30  35.70  19.80 -99.000   7.459   0.348   7.111 -99.000 -99.000 -99.000   0.151   0.016   0.133   0.000   0.002   3819.    813.     81.    732.      0.      0.   0.014   0.049   0.034   0.013   0.007   0.009   0.004   0.003   0.002
 1982 293   689  25.00  34.80  21.30 -99.000   6.878   0.328   6.550 -99.000 -99.000 -99.000   0.149   0.016   0.131   0.000   0.002   3825.    813.     81.    732.      0.      0.   0.012   0.049   0.034   0.013   0.007   0.009   0.004   0.003   0.002
 1982 294   690  26.40  32.70  21.00 -99.000   7.091   0.340   6.750 -99.000 -99.000 -99.000   0.147   0.016   0.130   0.000   0.001   3833.    813.     81.    732.      0.      0.   0.011   0.048   0.034   0.013   0.007   0.009   0.004   0.003   0.002
 1982 295   691  23.70  33.20  21.60 -99.000   6.426   0.302   6.124 -99.000 -99.000 -99.000   0.146   0.016   0.128   0.000   0.001   3839.    813.     81.    732.      0.      0.   0.010   0.048   0.034   0.013   0.007   0.009   0.004   0.003   0.002
 1982 296   692  23.00  34.50  21.90 -99.000   6.334   0.290   6.044 -99.000 -99.000 -99.000   0.144   0.016   0.127   0.000   0.001   3845.    814.     81.    732.      0.      0.   0.009   0.048   0.034   0.013   0.007   0.009   0.004   0.003   0.002
 1982 297   693  27.10  34.70  22.40 -99.000   7.504   0.333   7.171 -99.000 -99.000 -99.000   0.143   0.016   0.126   0.000   0.001   3853.    814.     81.    733.      0.      0.   0.008   0.047   0.034   0.013   0.007   0.009   0.004   0.003   0.002
 1982 298   694  27.30  34.90  21.90 -99.000   7.551   0.318   7.233 -99.000 -99.000 -99.000   0.142   0.016   0.124   0.000   0.001   3860.    814.     81.    733.      0.      0.   0.007   0.047   0.034   0.013   0.007   0.009   0.004   0.003   0.002
 1982 299   695  25.10  35.70  22.50 -99.000   7.251   0.303   6.948 -99.000 -99.000 -99.000   0.140   0.016   0.123   0.000   0.001   3868.    814.     81.    733.      0.      0.   0.007   0.047   0.034   0.013   0.007   0.009   0.004   0.003   0.002
 1982 300   696  22.30  32.10  23.50 -99.000   6.058   0.253   5.805 -99.000 -99.000 -99.000   0.139   0.016   0.122   0.000   0.001   3874.    814.     81.    733.      0.      0.   0.006   0.047   0.034   0.013   0.007   0.009   0.004   0.003   0.002
 1982 301   697  16.80  32.20  22.40 -99.000   4.534   0.189   4.344 -99.000 -99.000 -99.000   0.138   0.016   0.121   0.000   0.001   3878.    814.     81.    733.      0.      0.   0.005   0.046   0.034   0.013   0.007   0.009   0.004   0.003   0.002
 1982 302   698  19.60  34.60  21.60 -99.000   5.393   0.225   5.167 -99.000 -99.000 -99.000   0.137   0.015   0.121   0.000   0.001   3884.    814.     81.    733.      0.      0.   0.005   0.046   0.034   0.013   0.007   0.009   0.004   0.003   0.002
 1982 303   699  21.50  34.40  22.20 -99.000   5.927   0.248   5.679 -99.000 -99.000 -99.000   0.136   0.015   0.120   0.000   0.001   3890.    814.     81.    733.      0.      0.   0.004   0.046   0.034   0.013   0.007   0.009   0.004   0.003   0.002
 1982 304   700  15.80  33.00  21.90 -99.000   4.284   0.184   4.101 -99.000 -99.000 -99.000   0.135   0.015   0.119   0.000   0.001   3894.    815.     81.    733.      0.      0.   0.004   0.045   0.034   0.013   0.007   0.009   0.004   0.003   0.002
 1982 305   701  21.10  32.50  21.20 -99.000   5.663   0.246   5.417 -99.000 -99.000 -99.000   0.134   0.015   0.118   0.000   0.001   3900.    815.     81.    733.      0.      0.   0.004   0.045   0.033   0.013   0.007   0.009   0.004   0.003   0.002
 1982 306   702  19.50  33.80  20.40 -99.000   5.276   0.224   5.053 -99.000 -99.000 -99.000   0.134   0.015   0.118   0.000   0.001   3905.    815.     81.    734.      0.      0.   0.003   0.045   0.033   0.013   0.007   0.009   0.004   0.003   0.002
 1982 307   703  26.40  32.90  21.50 -99.000   7.131   0.294   6.837 -99.000 -99.000 -99.000   0.133   0.015   0.117   0.000   0.001   3912.    815.     81.    734.      0.      0.   0.003   0.044   0.033   0.013   0.007   0.009   0.004   0.003   0.002
 1982 308   704  26.10  33.20  21.50 -99.000   7.073   0.284   6.788 -99.000 -99.000 -99.000   0.132   0.016   0.116   0.000   0.001   3919.    815.     81.    734.      0.      0.   0.003   0.044   0.033   0.013   0.007   0.009   0.004   0.003   0.002
 1982 309   705  25.20  35.20  21.80 -99.000   7.049   0.276   6.774 -99.000 -99.000 -99.000   0.132   0.016   0.116   0.000   0.001   3926.    815.     81.    734.      0.      0.   0.002   0.044   0.033   0.013   0.007   0.009   0.004   0.003   0.002
 1982 310   706  20.30  33.70  23.00 -99.000   5.587   0.218   5.368 -99.000 -99.000 -99.000   0.131   0.015   0.115   0.000   0.001   3932.    815.     81.    734.      0.      0.   0.002   0.044   0.033   0.013   0.007   0.009   0.004   0.003   0.002
 1982 311   707  23.60  34.60  22.40 -99.000   6.528   0.255   6.273 -99.000 -99.000 -99.000   0.130   0.015   0.115   0.000   0.000   3938.    816.     81.    734.      0.      0.   0.002   0.043   0.033   0.013   0.007   0.009   0.004   0.003   0.002
 1982 312   708  24.90  33.80  23.20 -99.000   6.869   0.269   6.600 -99.000 -99.000 -99.000   0.130   0.015   0.114   0.000   0.000   3945.    816.     81.    734.      0.      0.   0.002   0.043   0.033   0.013   0.007   0.009   0.004   0.003   0.002
 1982 313   709  26.30  34.50  21.70 -99.000   7.233   0.283   6.950 -99.000 -99.000 -99.000   0.129   0.015   0.113   0.000   0.000   3952.    816.     81.    734.      0.      0.   0.002   0.043   0.033   0.013   0.007   0.009   0.003   0.003   0.002
 1982 314   710  25.20  34.80  24.30 -99.000   7.075   0.277   6.799 -99.000 -99.000 -99.000   0.128   0.015   0.113   0.000   0.000   3959.    816.     81.    735.      0.      0.   0.001   0.043   0.033   0.013   0.007   0.009   0.003   0.003   0.002
 1982 315   711  24.60  35.00  23.40 -99.000   6.879   0.269   6.610 -99.000 -99.000 -99.000   0.128   0.015   0.113   0.000   0.000   3966.    816.     81.    735.      0.      0.   0.001   0.042   0.033   0.013   0.007   0.009   0.003   0.003   0.001
