$GROWTH ASPECTS OUTPUT FILE

*DSSAT Cropping System Model Ver. 4.7.5.008 -release  JAN 03, 2020 19:06:54

*RUN   1        : January_to_January        CSYCA047 EMBR8101    1
 MODEL          : CSYCA047 - Cassava
 EXPERIMENT     : EMBR8101 CS YUCA_TESTANDO
 DATA PATH      : C:\DSSAT47\CASSAVA\
 TREATMENT  1   : January_to_January        CSYCA047
  
@YEAR DOY   DAS   DAP TMEAN  GSTD  L#SD PARID PARUD  AWAD  LAID  SAID  CAID  TWAD SDWAD  RWAD  CWAD  LWAD  SWAD  HWAD  HIAD RSWAD SNWLD SNWSD  RS%D  S#AD  SLAD  RDPD  SWXD WAVRD WUPRD  WFPD  WFGD  NFPD  NFGD NUPRD  TFPD  TFGD DYLFD            
 1981  15    45     0  29.1     0   0.0 0.000  0.00   0.0     0 0.000     0 -2226     0     0     0     0     0     0 0.000     0     0     0  0.00     1 -99.0  0.05   0.0  99.9  1.00  0.00  0.00  0.00  0.00   0.0  0.00  0.00  0.00
 1981  16    46     1  27.1     0   0.0 0.000  0.00   0.0     0 0.000     0 -2226     0     0     0     0     0     0 0.000     0     0     0  0.00     1 -99.0  0.05   0.0  99.9  1.00  0.00  0.00  0.00  0.00   0.0  0.00  0.00  0.00
 1981  17    47     2  27.2     0   0.0 0.000  0.00   0.0     0 0.000     0 -2226     0     0     0     0     0     0 0.000     0     0     0  0.00     1 -99.0  0.05   0.0  99.9  1.00  0.00  0.00  0.00  0.00   0.0  0.00  0.00  0.00
 1981  18    48     3  27.3     0   0.0 0.000  0.00   0.0     0 0.000     0 -2226     0     0     0     0     0     0 0.000     0     0     0  0.00     1 -99.0  0.05   0.0  99.9  1.00  0.00  0.00  0.00  0.00   0.0  0.00  0.00  0.00
 1981  19    49     4  25.9     0   0.0 0.000  0.00   0.0     0 0.000     0 -2226     0     0     0     0     0     0 0.000     0     0     0  0.00     1 -99.0  0.05   0.0  99.9  1.00  0.00  0.00  0.00  0.00   0.0  0.00  0.00  0.00
 1981  20    50     5  26.2     0   0.0 0.000  0.00   0.0     0 0.000     0 -2226     0     0     0     0     0     0 0.000     0     0     0  0.00     1 -99.0  0.05   0.0  99.9  1.00  0.00  0.00  0.00  0.00   0.0  0.00  0.00  0.00
 1981  21    51     6  26.2     0   0.0 0.000  0.00   0.0     0 0.000     0 -2226     0     0     0     0     0     0 0.000     0     0     0  0.00     1 -99.0  0.05   0.9  99.9  1.00  0.00  0.00  0.00  0.00   0.0  0.00  0.00  0.00
 1981  22    52     7  27.2     0   0.0 0.000  0.00   0.0     0 0.000     0 -2226     0     0     0     0     0     0 0.000     0     0     0  0.00     1 -99.0  0.05   9.7  99.9  1.00  0.00  0.00  0.00  0.00   0.0  0.00  0.00  0.00
 1981  23    53     8  26.4     0   0.0 0.000  0.00   0.0     0 0.000     0 -2226     0     0     0     0     0     0 0.000     0     0     0  0.00     1 -99.0  0.05  10.2  99.9  1.00  0.00  0.00  0.00  0.00   0.0  0.00  0.00  0.00
 1981  24    54     9  26.8     0   0.0 0.000  0.00   0.0     0 0.000     0 -2226     0     0     0     0     0     0 0.000     0     0     0  0.00     1 -99.0  0.05   8.0  99.9  1.00  0.00  0.00  0.00  0.00   0.0  0.00  0.00  0.00
 1981  25    55    10  26.8     0   0.0 0.000  0.00   0.0     0 0.000     0 -2226     0     0     0     0     0     0 0.000     0     0     0  0.00     1 -99.0  0.05   6.5  99.9  1.00  0.00  0.00  0.00  0.00   0.0  0.00  0.00  0.00
 1981  26    56    11  27.0     0   0.0 0.000  0.00   0.0     0 0.000     0 -2226     0     0     0     0     0     0 0.000     0     0     0  0.00     1 -99.0  0.05   6.4  99.9  1.00  0.00  0.00  0.00  0.00   0.0  0.00  0.00  0.00
 1981  27    57    12  26.4     0   0.0 0.000  0.00   0.0     0 0.000     0 -2226     0     0     0     0     0     0 0.000     0     0     0  0.00     1 -99.0  0.05   6.2  99.9  1.00  0.00  0.00  0.00  0.00   0.0  0.00  0.00  0.00
 1981  28    58    13  27.1     0   0.0 0.000  0.00   0.0     0 0.000     0 -2226     0     0     0     0     0     0 0.000     0     0     0  0.00     1 -99.0  0.05   6.1  99.9  1.00  0.00  0.00  0.00  0.00   0.0  0.00  0.00  0.00
 1981  29    59    14  26.7     0   0.0 0.000  0.00   0.0     0 0.000     0 -2235     0     0     0     0     0     0 0.000     0     0     0  0.00     1 -99.0  0.05   5.3  99.9  1.00  0.00  0.00  0.00  0.00   0.0  0.00  0.00  0.00
 1981  30    60    15  26.1 .0148   0.0 0.000  0.00   0.0     0 0.000     0 -2243     0     0     0     0     0     0 0.000     0     0     0  0.00     1 -99.0  0.08  15.4  99.9  1.00  0.00  0.40  0.00  0.00   0.0  0.00  0.00  0.00
 1981  31    61    16  26.8 .0404   1.4 0.000  0.00   0.0     0 0.000     0 -2243     0     0     0     0     0     0 0.000     0     0     0  0.00     1 -99.0  0.10  16.8  99.9  1.00  0.00  0.00  0.00  0.00   0.0  0.00  0.00  0.00
 1981  32    62    17  26.9 .0648   2.5 0.000  0.00   0.0     0 0.000     0 -2243     0     0     0     0     0     0 0.000     0     0     0  0.00     1 -99.0  0.12  19.9  99.9  1.00  0.00  0.01  0.00  0.00   0.0  0.00  0.00  0.00
 1981  33    63    18  26.8 .0893   3.5 0.000  0.00   0.0     0 0.000 .0002 -2243     4     0     6     1     0     0 0.011     0     0     0  2.00     1 220.0  0.14  20.8  99.9  1.00  0.00  0.00  0.00  0.00   0.0  0.00  0.00  0.00
 1981  34    64    19  26.5 0.112   4.5 0.002  0.00   0.0 .0021 0.001 .0027 -2242     9     1    14     3     1     1 0.036     0     0 .0030  2.00     1 220.0  0.16  22.6  99.9  1.00  0.00  0.07  0.00  0.00   0.0  0.00  0.00  0.00
 1981  35    65    20  25.9 0.134   5.4 0.005  0.81   0.1 .0060 0.001 .0072 -2242    13     1    23     5     2     2 0.063     0     0 .0119  2.00     1 220.0  0.18  23.9  99.9  1.00  0.00  0.14  0.00  0.00   0.0  0.00  0.00  0.00
 1981  36    66    21  25.7 0.155   6.2 0.010  1.05   0.5 .0116 0.002 .0135 -2240    16     2    33     8     3     3 0.091     1     0 .0298  2.00     1 220.0  0.20  25.2  99.9  1.00  0.00  0.20  0.00  0.00   0.0  0.00  0.00  0.00
 1981  37    67    22  27.2 0.174   7.0 0.016  0.67   0.8 .0187 0.003 .0214 -2238    20     3    43    12     4     6 0.120     1     0 .0596  2.00     1 220.0  0.22  26.6  99.9  1.00  0.00  0.25  0.00  0.00   0.0  0.00  0.00  0.00
 1981  38    68    23  27.0 0.191   7.8 0.023  0.92   1.4 .0272 0.004 .0309 -2236    23     4    55    17     6    10 0.148     1     0 0.104  2.00     1 220.0  0.23  28.6  99.9  1.00  0.00  0.29  0.00  0.00   0.0  0.00  0.00  0.00
 1981  39    69    24  27.5 0.209   8.5 0.031  0.58   1.6 .0369 0.005 .0416 -2233    26     5    67    21     7    13 0.165     1     0 0.166  2.00     1 220.0  0.25  31.0  99.9  1.00  0.00  0.29  0.00  0.00   0.0  0.00  0.00  0.00
 1981  40    70    25  27.5 0.226   9.3 0.039  0.45   1.9 .0466 0.006 .0524 -2229    30     6    79    26     9    17 0.176     2     0 0.246  2.00     1 220.0  0.27  32.5  99.9  1.00  0.00  0.27  0.00  0.00   0.0  0.00  0.00  0.00
 1981  41    71    26  26.9 0.242  10.1 0.047  0.52   2.7 .0570 0.007 .0638 -2225    33     7    92    31    11    21 0.185     2     0 0.344  2.00     1 220.0  0.29  34.6  99.9  1.00  0.00  0.28  0.00  0.00   0.0  0.00  0.00  0.00
 1981  42    72    27  27.8 0.260  10.9 0.056  0.43   2.7 .0676 0.008 .0755 -2221    36     8   105    36    13    25 0.189     2     0 0.461  2.00     1 220.0  0.31  36.9  99.9  1.00  0.00  0.26  0.00  0.00   0.0  0.00  0.00  0.00
 1981  43    73    28  27.0 0.278  11.7 0.065  0.76   4.3 .0789 0.009 .0880 -2216    40     9   120    41    16    28 0.191     2     0 0.598  2.00     1 220.0  0.32  38.7  99.9  1.00  0.00  0.24  0.00  0.00   0.0  0.00  0.00  0.00
 1981  44    74    29  27.4 0.296  12.5 0.074  0.75   4.6 .0908 0.010 0.101 -2210    42    10   127    44    17    29 0.185     3     0 0.755  2.00     1 220.0  0.34  40.4  99.9  1.00  0.00  0.24  0.00  0.00   0.0  0.00  0.00  0.00
 1981  45    75    30  26.4 0.314  13.2 0.079  1.08   4.7 .0972 0.010 0.107 -2206    42    10   131    46    18    29 0.181     3     0 0.919  2.00     1 220.0  0.35  42.2  99.9  1.00  0.00  0.24  0.00  0.00   0.0  0.00  0.00  0.00
 1981  46    76    31  26.8 0.333  14.0 0.082  0.81   7.6 0.101 0.011 0.112 -2195    44    10   141    50    20    30 0.174     3     0 1.086  2.00     1 220.0  0.37  43.9  94.4  1.00  0.00  0.25  0.00  0.00   0.0  0.00  0.00  0.00
 1981  47    77    32  27.8 0.351  14.8 0.089  0.43   4.8 0.110 0.012 0.121 -2188    45    11   147    52    21    30 0.171     3     0 1.263  2.00     1 220.0  0.38  45.6  80.5  1.00  0.00  0.26  0.00  0.00   0.0  0.00  0.00  0.00
 1981  48    78    33  27.7 0.368  15.6 0.093  0.81   6.4 0.115 0.012 0.127 -2182    46    11   152    54    22    31 0.167     3     0 1.445  2.00     1 220.0  0.40  47.3  99.9  1.00  0.00  0.27  0.00  0.00   0.0  0.00  0.00  0.00
 1981  49    79    34  27.4 0.385  16.3 0.097  0.64   6.3 0.120 0.013 0.132 -2174    48    11   159    57    23    31 0.163     3     0 1.632  2.00     1 220.0  0.41  49.0  99.5  1.00  0.00  0.28  0.00  0.00   0.0  0.00  0.00  0.00
 1981  50    80    35  26.9 0.402  17.0 0.101  0.40   5.2 0.126 0.013 0.139 -2168    49    12   165    60    24    32 0.160     3     0 1.824  2.00     1 220.0  0.43  50.7  77.9  1.00  0.00  0.29  0.00  0.00   0.0  0.00  0.00  0.00
 1981  51    81    36  27.2 0.419  17.8 0.105  0.47   6.1 0.131 0.014 0.145 -2161    50    12   171    62    26    32 0.157     3     0 2.022  2.00     1 220.0  0.44  52.4  80.8  1.00  0.00  0.29  0.00  0.00   0.0  0.00  0.00  0.00
 1981  52    82    37  28.2 0.436  18.5 0.110  0.39   4.9 0.137 0.014 0.151 -2156    50    12   176    64    26    32 0.155     4     0 2.225  2.00     1 220.0  0.46  53.8  85.4  1.00  0.00  0.30  0.00  0.00   0.0  0.00  0.00  0.00
 1981  53    83    38  27.5 0.451  19.2 0.113  0.37   5.4 0.141 0.015 0.156 -2149    51    12   182    66    28    33 0.153     4     0 2.432  2.00     1 220.0  0.47  54.9  74.1  1.00  0.00  0.31  0.00  0.00   0.0  0.00  0.00  0.00
 1981  54    84    39  28.3 0.467  19.9 0.117  0.37   5.7 0.146 0.015 0.161 -2143    52    13   187    69    29    33 0.150     4     0 2.643  2.00     1 220.0  0.48  56.0  72.4  1.00  0.00  0.32  0.00  0.00   0.0  0.00  0.00  0.00
 1981  55    85    40  27.9 0.482  20.6 0.121  0.47   7.5 0.151 0.016 0.167 -2134    53    13   195    72    30    34 0.148     4     0 2.858  2.00     1 220.0  0.50  57.0  71.2  1.00  0.00  0.33  0.00  0.00   0.0  0.00  0.00  0.00
 1981  56    86    41  27.8 0.497  21.3 0.126  0.39   6.4 0.158 0.017 0.175 -2127    54    13   201    75    32    34 0.145     4     0 3.081  2.00     1 220.0  0.51  58.1  69.6  1.00  0.00  0.34  0.00  0.00   0.0  0.00  0.00  0.00
 1981  57    87    42  28.1 0.512  22.0 0.130  0.42   6.4 0.164 0.017 0.181 -2120    55    14   207    77    33    35 0.143     4     0 3.309  2.00     1 220.0  0.52  59.2  77.3  1.00  0.00  0.34  0.00  0.00   0.0  0.00  0.00  0.00
 1981  58    88    43  29.4 0.527  22.7 0.134  0.26   4.6 0.170 0.018 0.187 -2115    56    14   212    79    34    35 0.142     4     0 3.542  2.00     1 220.0  0.54  60.4  64.0  1.00  0.00  0.35  0.00  0.00   0.0  0.00  0.00  0.00
 1981  59    89    44  28.1 0.540  23.4 0.138  0.25   4.5 0.174 0.018 0.192 -2109    56    14   217    81    36    35 0.140     4     0 3.778  2.00     1 220.0  0.55  61.5  66.2  1.00  0.00  0.36  0.00  0.00   0.0  0.00  0.00  0.00
 1981  60    90    45  29.3 0.554  24.1 0.141  0.09   1.6 0.178 0.018 0.197 -2107    56    14   219    82    36    36 0.140     4     0 4.017  2.00     1 220.0  0.56  62.6  62.5  1.00  0.00  0.37  0.00  0.00   0.0  0.00  0.00  0.00
 1981  61    91    46  28.1 0.567  24.7 0.142  0.19   3.4 0.180 0.018 0.199 -2103    57    14   223    83    37    36 0.139     4     0 4.255  2.00     1 220.0  0.58  63.7  71.3  1.00  0.00  0.38  0.00  0.00   0.0  0.00  0.00  0.00
 1981  62    92    47  27.6 0.581  25.4 0.144  0.12   2.2 0.183 0.019 0.202 -2101    57    14   225    84    37    36 0.138     5     0 4.495  2.00     1 220.0  0.59  64.9  72.9  1.00  0.00  0.38  0.00  0.00   0.0  0.00  0.00  0.00
 1981  63    93    48  27.2 0.595  25.9 0.146  0.61   7.2 0.186 0.019 0.205 -2093    58    14   232    87    39    37 0.136     5     0 4.733  2.00     1 220.0  0.60  66.0  99.9  1.00  0.00  0.39  0.00  0.00   0.0  0.00  0.00  0.00
 1981  64    94    49  28.3 0.610  26.6 0.151  0.29   5.4 0.192 0.020 0.212 -2085    59    15   239    90    41    37 0.135     5     0 4.978  2.00     1 220.0  0.61  66.6  69.7  1.00  0.00  0.39  0.00  0.00   0.0  0.00  0.00  0.00
 1981  65    95    50  29.4 0.623  27.2 0.155  0.46   8.4 0.199 0.021 0.219 -2076    60    15   247    94    43    38 0.133     5     0 5.229  2.00     1 220.0  0.63  67.2  72.3  1.00  0.00  0.40  0.00  0.00   0.0  0.00  0.00  0.00
 1981  66    96    51  29.4 0.635  27.9 0.160  0.50   8.3 0.206 0.021 0.227 -2067    61    16   255    97    45    38 0.131     5     0 5.488  2.00     1 220.0  0.64  67.9  80.8  1.00  0.00  0.40  0.00  0.00   0.0  0.00  0.00  0.00
 1981  67    97    52  29.9 0.647  28.5 0.165  0.66  12.3 0.212 0.023 0.235 -2053    62    16   267   102    48    39 0.129     5     0 5.754  2.00     1 220.0  0.65  68.5  69.7  1.00  0.00  0.41  0.00  0.00   0.0  0.00  0.00  0.00
 1981  68    98    53  30.3 0.659  29.2 0.173  0.29   5.5 0.224 0.023 0.247 -2046    63    17   273   104    49    40 0.128     5     0 6.035  2.00     1 220.0  0.66  69.1  65.1  1.00  0.00  0.41  0.00  0.00   0.0  0.00  0.00  0.00
 1981  69    99    54  29.2 0.670  29.8 0.177  0.80  12.6 0.229 0.024 0.253 -2033    64    17   285   109    52    41 0.126     6     0 6.319  2.00     1 220.0  0.67  69.7  86.3  1.00  0.00  0.42  0.00  0.00   0.0  0.00  0.00  0.00
 1981  70   100    55  27.9 0.682  30.4 0.184  1.11  15.1 0.239 0.025 0.264 -2017    66    18   297   113    56    43 0.127     6     0 6.615  2.00     1 220.0  0.69  70.3  99.9  1.00  0.00  0.42  0.00  0.00   0.0  0.00  0.00  0.00
 1981  71   101    56  26.6 0.696  30.9 0.191  1.33  15.0 0.250 0.026 0.276 -2002    67    19   310   118    60    45 0.127     6     0 6.927  2.00     1 220.0  0.70  84.0  99.9  1.00  0.00  0.42  0.00  0.00   0.0  0.00  0.00  0.00
 1981  72   102    57  25.4 0.713  31.5 0.198  1.70  15.8 0.260 0.027 0.287 -1986    69    20   324   123    64    46 0.125     6     0 7.254  2.00     1 220.0  0.71  99.6  99.9  1.00  0.00  0.29  0.00  0.00   0.0  0.00  0.00  0.00
 1981  73   103    58  23.2 0.737  32.0 0.206  1.75  16.5 0.271 0.028 0.300 -1968    71    21   339   128    70    48 0.123     7     0 7.576  2.00     1 220.0  0.72 111.8  99.9  1.00  0.00  0.10  0.00  0.00   0.0  0.12  0.07  0.00
 1981  74   104    59  25.5 0.763  32.8 0.213  1.34  20.5 0.282 0.030 0.313 -1940    75    23   364   136    79    50 0.120     7     0 7.894  2.00     1 220.0  0.73 116.6  99.9  1.00  0.00  0.04  0.00  0.00   0.0  0.00  0.00  0.00
 1981  75   105    60  25.9 0.789  33.6 0.225  1.31  21.8 0.299 0.032 0.331 -1915    77    24   385   144    86    51 0.118     8     0 8.227  2.00     1 220.0  0.74 115.5  99.9  1.00  0.00  0.02  0.00  0.00   0.0  0.00  0.00  0.00
 1981  76   106    61  25.4 0.815  34.4 0.236  1.47  27.2 0.316 0.034 0.350 -1884    81    26   412   153    95    54 0.115     8     0 8.577  2.00     1 220.0  0.75 136.5  99.9  1.00  0.00  0.03  0.00  0.00   0.0  0.00  0.00  0.00
 1981  77   107    62  25.2 0.841  35.1 0.249  1.42  19.5 0.337 0.035 0.372 -1866    83    27   428   159   100    55 0.114     9     0 8.957  2.00     1 220.0  0.76 145.4  99.9  1.00  0.00  0.01  0.00  0.00   0.0  0.00  0.00  0.00
 1981  78   108    63  26.0 0.868  36.0 0.257  1.35  26.4 0.349 0.037 0.386 -1832    86    30   457   169   110    58 0.112     9     0 9.375  2.00     1 220.0  0.77 148.2  99.9  1.00  0.00  0.00  0.00  0.00   0.0  0.00  0.00  0.00
 1981  79   109    64  23.1 0.894  36.6 0.270  1.55  20.0 0.371 0.039 0.410 -1815    88    30   472   174   115    59 0.111     9     0 9.809  2.00     1 220.0  0.78 151.1  99.9  1.00  0.00  0.00  0.00  0.00   0.0  0.12  0.07  0.00
 1981  80   110    65  24.9 0.921  37.3 0.278  1.46  30.6 0.383 0.041 0.424 -1776    91    33   505   186   126    63 0.111    10     0 10.25  2.00     1 220.0  0.79 151.4  99.9  1.00  0.00  0.00  0.00  0.00   0.0  0.01  0.00  0.00
 1981  81   111    66  24.4 0.948  38.0 0.293  1.56  25.2 0.408 0.043 0.451 -1752    93    34   525   194   133    65 0.110    11     0 10.71  2.00     1 220.0  0.80 153.7  99.9  1.00  0.00  0.00  0.00  0.00   0.0  0.04  0.00  0.00
 1981  82   112    67  25.8 0.976  38.8 0.304  1.43  31.8 0.426 0.046 0.472 -1711    97    37   560   207   144    68 0.108    11     0 11.20  2.00     1 220.0  0.81 154.4  99.9  1.00  0.00  0.00  0.00  0.00   0.0  0.00  0.00  0.00
 1981  83   113    68  23.0 1.003  39.4 0.321  1.67  28.2 0.455 0.048 0.502 -1684    99    39   583   215   151    70 0.107    12     0 11.69  2.00     2 220.0  0.82 156.9  99.9  1.00  0.00  0.00  0.00  0.00   0.0  0.13  0.08  0.00
 1981  84   114    69  25.0 1.027  40.2 0.331  1.53  31.9 0.474 0.051 0.524 -1645   102    41   617   228   162    73 0.105    12     0 12.22  2.00     2 220.0  0.83 157.8  99.9  1.00  0.00  0.00  0.00  0.00   0.0  0.00  0.00  0.00
 1981  85   115    70  23.4 1.052  40.8 0.347  1.58  28.8 0.502 0.053 0.554 -1616   105    43   643   238   170    75 0.104    13     0 12.77  2.00     2 220.0  0.84 159.8  99.9  1.00  0.00  0.00  0.00  0.00   0.0  0.11  0.05  0.00
 1981  86   116    71  25.3 1.078  41.5 0.359  1.27  51.3 0.524 0.058 0.582 -1542   108    47   695   261   183    91 0.116    14     0 13.37  2.00     2 220.0  0.85 158.9  81.0  1.00  0.00  0.00  0.00  0.00   0.0  0.00  0.00  0.00
 1981  87   117    72  25.8 1.103  42.3 0.386  1.37  44.9 0.575 0.061 0.636 -1498   111    50   733   277   194    94 0.114    15     0 14.02  2.00     2 220.0  0.86 159.7  99.9  1.00  0.00  0.00  0.00  0.00   0.0  0.00  0.00  0.00
 1981  88   118    73  25.5 1.127  43.0 0.405  1.24  53.1 0.610 0.067 0.677 -1434   115    54   788   301   208   100 0.112    16     0 14.76  2.00     2 220.0  0.87 151.0  72.8  1.00  0.00  0.00  0.00  0.00   0.0  0.00  0.00  0.00
 1981  89   119    74  25.6 1.152  43.8 0.431  1.26  54.5 0.663 0.072 0.735 -1373   118    58   840   325   220   104 0.111    17     0 15.59  2.00     2 220.0  0.88 148.2  70.5  1.00  0.00  0.00  0.00  0.00   0.0  0.00  0.00  0.00
 1981  90   120    75  25.5 1.176  44.5 0.455  1.27  62.1 0.715 0.078 0.793 -1303   121    63   896   350   235   114 0.113    18     0 16.53  2.00     2 220.0  0.90 146.3  61.8  1.00  0.00  0.00  0.00  0.00   0.0  0.00  0.00  0.00
 1981  91   121    76  25.5 1.201  45.2 0.480  1.49  54.6 0.770 0.082 0.852 -1252   124    66   941   370   246   118 0.111    19     0 17.53  2.00     2 220.0  0.91 147.9  84.0  1.00  0.00  0.00  0.00  0.00   0.0  0.00  0.00  0.00
 1981  92   122    77  24.6 1.225  45.9 0.499  1.49  44.6 0.814 0.086 0.900 -1208   126    68   979   388   254   121 0.110    20     0 18.56  2.00     2 220.0  0.92 149.4  99.9  1.00  0.00  0.00  0.00  0.00   0.0  0.03  0.00  0.00
 1981  93   123    78  25.2 1.251  46.6 0.516  1.40  57.0 0.854 0.093 0.947 -1136   129    73  1041   417   268   126 0.108    21     0 19.61  2.00     2 220.0  0.93 155.4  80.1  1.00  0.00  0.00  0.00  0.00   0.0  0.00  0.00  0.00
 1981  94   124    79  25.0 1.276  47.3 0.542  1.36  83.8 0.918 0.099 1.017 -1032   132    78  1106   447   285   160 0.126    22     0 20.72  2.00     2 220.0  0.94 163.5  55.9  1.00  0.00  0.00  0.00  0.00   0.0  0.00  0.00  0.00
 1981  95   125    80  24.8 1.302  48.0 0.566  1.40  68.8 0.983 0.105 1.088  -966   135    82  1163   474   298   165 0.124    23     0 21.88  2.00     2 220.0  0.95 156.5  67.3  1.00  0.00  0.00  0.00  0.00   0.0  0.01  0.00  0.00
 1981  96   126    81  25.2 1.327  48.7 0.588  1.37  82.3 1.043 0.113 1.156  -870   138    88  1240   510   316   178 0.125    25     0 23.11  2.00     2 220.0  0.96 150.9  53.2  1.00  0.00  0.00  0.00  0.00   0.0  0.00  0.00  0.00
 1981  97   127    82  24.8 1.352  49.3 0.615  1.24  81.7 1.122 0.120 1.242  -779   141    94  1308   540   334   196 0.130    26     0 24.46  2.00     2 220.0  0.97 146.9  47.6  1.00  0.00  0.00  0.00  0.00   0.0  0.02  0.00  0.00
 1981  98   128    83  25.0 1.378  50.0 0.636  1.24  85.1 1.188 0.128 1.316  -686   145    99  1384   576   352   206 0.130    28     0 25.89  2.00     2 220.0  0.98 143.5  44.7  1.00  0.00  0.01  0.00  0.00   0.0  0.00  0.00  0.00
 1981  99   129    84  24.2 1.402  50.6 0.659  1.12  86.4 1.267 0.135 1.402  -589   148   105  1458   610   370   224 0.133    29     0 27.41  2.00     2 220.0  0.99 140.3  39.4  1.00  0.00  0.05  0.00  0.00   0.0  0.05  0.00  0.00
 1981 100   130    85  24.4 1.426  51.2 0.680  1.18  92.1 1.342 0.141 1.483  -492   151   110  1520   637   387   254 0.143    30     0 29.04  2.00     2 220.0  1.01 137.0  38.1  1.00  0.00  0.09  0.00  0.00   0.0  0.04  0.00  0.00
 1981 101   131    86  24.5 1.449  51.7 0.696  1.14  90.2 1.402 0.147 1.549  -396   154   114  1579   663   404   287 0.154    32 .0209 30.75  2.00     2 220.0  1.02 134.0  36.6  1.00  0.00  0.14  0.00  0.00   0.0  0.03  0.00  0.00
 1981 102   132    87  24.1 1.470  52.2 0.710  1.29  89.0 1.455 0.153 1.608  -308   156   119  1639   689   421   309 0.159    33 0.441 32.52  2.00     2 220.0  1.03 131.2  41.7  1.00  0.00  0.19  0.00  0.00   0.0  0.06  0.00  0.00
 1981 103   133    88  24.9 1.490  52.7 0.724  1.28  99.2 1.513 0.157 1.670  -201   159   123  1687   709   436   365 0.178    34 1.263 34.36  2.00     2 220.0  1.04 128.4  35.9  1.00  0.00  0.24  0.00  0.00   0.0  0.01  0.00  0.00
 1981 104   134    89  24.5 1.509  53.2 0.733  1.27  91.6 1.554 0.161 1.715  -110   161   127  1730   726   451   409 0.191    35 2.434 36.23  2.00     2 220.0  1.05 125.7  38.2  1.00  0.00  0.28  0.00  0.00   0.0  0.03  0.00  0.00
 1981 105   135    90  24.8 1.526  53.6 0.741  1.25  94.7 1.589 0.164 1.753   -11   164   131  1769   740   465   466 0.208    35 4.027 38.16  2.00     2 220.0  1.06 124.1  35.8  1.00  0.00  0.32  0.00  0.00   0.0  0.02  0.00  0.00
 1981 106   136    91  25.3 1.543  54.0 0.747  1.07  91.9 1.618 0.167 1.785    88   166   134  1804   752   479   527 0.226    36 6.137 40.16  2.00     2 220.0  1.07 122.6  30.7  1.00  0.00  0.34  0.00  0.00   0.0  0.00  0.00  0.00
 1981 107   137    92  24.8 1.559  54.4 0.753  1.13  77.2 1.644 0.168 1.813   156   168   136  1831   760   493   565 0.236    37 8.293 42.24  2.00     2 220.0  1.08 121.2  38.5  1.00  0.00  0.37  0.00  0.00   0.0  0.02  0.00  0.00
 1981 108   138    93  25.6 1.575  54.9 0.756  1.30  97.6 1.661 0.171 1.832   258   170   139  1862   770   506   633 0.254    37 10.48 44.38  2.00     2 220.0  1.09 120.8  34.7  1.00  0.00  0.39  0.00  0.00   0.0  0.00  0.00  0.00
 1981 109   139    94  23.3 1.590  55.2 0.762  1.54  73.3 1.687 0.172 1.859   314   171   141  1887   777   518   662 0.260    38 11.98 46.49  2.00     2 220.0  1.10 120.0  56.7  1.00  0.00  0.40  0.00  0.00   0.0  0.11  0.05  0.00
 1981 110   140    95  24.5 1.604  55.6 0.764  1.37  98.8 1.701 0.173 1.874   432   173   142  1909   781   531   757 0.284    38 13.63 48.60  2.00     2 220.0  1.11 117.8  35.7  1.00  0.00  0.41  0.00  0.00   0.0  0.04  0.00  0.00
 1981 111   141    96  24.0 1.619  55.9 0.767  1.48  96.5 1.712 0.175 1.887   524   175   144  1934   788   543   822 0.298    39 15.11 50.65  2.00     2 220.0  1.13 116.5  39.8  1.00  0.00  0.44  0.00  0.00   0.0  0.06  0.00  0.00
 1981 112   142    97  24.7 1.633  56.2 0.770  1.14 102.5 1.727 0.176 1.903   645   177   145  1954   792   555   922 0.321    39 16.52 52.71  2.00     2 220.0  1.14 115.7  28.0  1.00  0.00  0.46  0.00  0.00   0.0  0.02  0.00  0.00
 1981 113   143    98  24.5 1.647  56.5 0.772  1.27 102.5 1.737 0.177 1.913   742   178   146  1973   796   567   998 0.336    39 17.80 54.76  2.00     2 220.0  1.15 115.0  31.4  1.00  0.00  0.48  0.00  0.00   0.0  0.03  0.00  0.00
 1981 114   144    99  24.5 1.660  56.9 0.773  1.45 102.2 1.745 0.177 1.922   837   180   147  1992   800   578  1074 0.350    40 19.23 56.89  2.00     2 220.0  1.16 114.5  35.7  1.00  0.00  0.49  0.00  0.00   0.0  0.03  0.00  0.00
 1981 115   145   100  25.3 1.673  57.2 0.775  1.38 110.2 1.753 0.178 1.931   953   181   148  2010   803   590  1171 0.368    40 20.59 59.06  2.00     2 220.0  1.17 114.4  31.2  1.00  0.00  0.50  0.00  0.00   0.0  0.00  0.00  0.00
 1981 116   146   101  24.8 1.685  57.5 0.776  1.24 100.7 1.761 0.178 1.939  1054   183   148  2025   805   601  1257 0.383    40 21.80 61.29  2.00     2 220.0  1.18 114.1  30.6  1.00  0.02  0.51  0.00  0.00   0.0  0.01  0.00  0.00
 1981 117   147   102  25.1 1.698  57.8 0.777  1.23 105.4 1.764 0.179 1.943  1162   184   149  2042   808   612  1346 0.397    41 22.96 63.54  2.00     2 220.0  1.19 114.0  28.8  1.00  0.04  0.52  0.00  0.00   0.0  0.00  0.00  0.00
 1981 118   148   103  24.8 1.710  58.1 0.778  1.15  94.4 1.772 0.180 1.952  1254   186   150  2060   811   622  1420 0.408    41 23.97 65.82  2.00     2 220.0  1.20 114.1  30.4  1.00  0.06  0.53  0.00  0.00   0.0  0.02  0.00  0.00
 1981 119   149   104  24.2 1.722  58.4 0.780  1.14  87.1 1.781 0.180 1.961  1337   187   150  2075   813   633  1488 0.418    42 24.80 68.14  2.00     2 220.0  1.21 114.2  33.0  1.00  0.07  0.54  0.00  0.00   0.0  0.05  0.00  0.00
 1981 120   150   105  24.6 1.734  58.6 0.781  1.24  89.0 1.785 0.181 1.966  1423   188   150  2093   817   643  1556 0.426    42 25.60 70.44  2.00     2 220.0  1.22 114.3  35.0  1.00  0.09  0.54  0.00  0.00   0.0  0.03  0.00  0.00
 1981 121   151   106  25.5 1.745  58.9 0.782  1.07  82.0 1.792 0.182 1.974  1507   190   151  2109   820   654  1623 0.435    42 26.61 72.79  2.00     2 220.0  1.23 114.4  32.0  1.00  0.10  0.55  0.00  0.00   0.0  0.00  0.00  0.00
 1981 122   152   107  25.3 1.756  59.2 0.783  0.94  76.4 1.799 0.182 1.981  1585   191   151  2123   821   664  1687 0.443    42 27.61 75.18  2.00     2 220.0  1.24 114.7  30.4  1.00  0.11  0.56  0.00  0.00   0.0  0.00  0.00  0.00
 1981 123   153   108  26.0 1.767  59.5 0.784  1.19  82.8 1.801 0.182 1.983  1661   192   151  2136   822   674  1750 0.450    43 28.64 77.57  2.00     2 220.0  1.25 115.0  35.6  1.00  0.13  0.56  0.00  0.00   0.0  0.00  0.00  0.00
 1981 124   154   109  24.3 1.778  59.8 0.784  1.03  87.6 1.804 0.183 1.987  1757   194   151  2152   825   684  1830 0.460    43 29.59 79.97  2.00     2 220.0  1.27 115.3  30.0  1.00  0.14  0.57  0.00  0.00   0.0  0.05  0.00  0.00
 1981 125   155   110  25.0 1.789  60.0 0.785  1.04  86.9 1.809 0.183 1.992  1842   195   151  2164   826   694  1903 0.468    43 30.67 82.42  2.00     2 220.0  1.28 115.7  30.0  1.00  0.15  0.57  0.00  0.00   0.0  0.00  0.00  0.00
 1981 126   156   111  23.8 1.800  60.3 0.786  1.15  68.6 1.812 0.183 1.995  1897   196   150  2177   827   704  1946 0.472    44 31.50 84.79  2.00     2 220.0  1.29 116.1  43.3  1.00  0.16  0.58  0.00  0.00   0.0  0.08  0.01  0.00
 1981 127   157   112  24.3 1.810  60.5 0.786  1.21  69.4 1.814 0.184 1.998  1965   197   151  2192   829   714  1998 0.477    44 32.38 87.08  2.00     2 220.0  1.30 116.4  44.9  1.00  0.17  0.58  0.00  0.00   0.0  0.05  0.00  0.00
 1981 128   158   113  24.4 1.821  60.7 0.787  1.13  79.6 1.820 0.184 2.004  2051   198   151  2205   830   723  2072 0.484    44 33.25 89.34  2.00     2 220.0  1.31 116.8  36.4  1.00  0.18  0.59  0.00  0.00   0.0  0.04  0.00  0.00
 1981 129   159   114  23.4 1.832  61.0 0.788  1.24  57.5 1.823 0.184 2.007  2094   199   150  2217   831   732  2103 0.487    44 33.92 91.51  2.00     2 220.0  1.32 117.1  56.8  1.00  0.19  0.59  0.00  0.00   0.0  0.11  0.05  0.00
 1981 130   160   115  23.2 1.842  61.2 0.788  1.32  46.7 1.827 0.185 2.011  2134   200   150  2229   833   741  2130 0.489    45 34.37 93.56  2.00     2 220.0  1.33 117.4  75.0  1.00  0.20  0.60  0.00  0.00   0.0  0.12  0.06  0.00
 1981 131   161   116  24.4 1.852  61.4 0.789  1.17  75.6 1.829 0.185 2.014  2228   202   150  2242   834   751  2212 0.497    45 35.03 95.60  2.00     2 220.0  1.34 117.7  40.2  1.00  0.21  0.60  0.00  0.00   0.0  0.04  0.00  0.00
 1981 132   162   117  22.8 1.862  61.6 0.789  0.98  77.2 1.832 0.185 2.017  2313   203   150  2254   836   759  2284 0.503    45 35.71 97.64  2.00     2 220.0  1.35 118.0  34.1  1.00  0.22  0.61  0.00  0.00   0.0  0.15  0.10  0.00
 1981 133   163   118  23.0 1.872  61.8 0.790  0.92  78.8 1.836 0.186 2.022  2394   204   150  2265   837   767  2355 0.510    45 36.31 99.68  2.00     2 220.0  1.36 118.3  31.1  1.00  0.22  0.61  0.00  0.00   0.0  0.13  0.08  0.00
 1981 134   164   119  23.9 1.881  62.0 0.790  0.94  76.9 1.838 0.186 2.024  2469   205   150  2277   838   776  2418 0.515    46 36.98 101.8  2.00     2 220.0  1.37 118.7  32.1  1.00  0.23  0.62  0.00  0.00   0.0  0.08  0.01  0.00
 1981 135   165   120  23.8 1.891  62.2 0.791  0.83  73.2 1.841 0.186 2.027  2544   206   149  2289   839   785  2481 0.520    46 37.60 104.0  2.00     2 220.0  1.38 119.1  29.9  1.00  0.24  0.62  0.00  0.00   0.0  0.08  0.02  0.00
 1981 136   166   121  26.0 1.901  62.5 0.791  0.96  68.1 1.842 0.186 2.028  2603   207   149  2298   839   794  2532 0.524    46 38.45 106.3  2.00     2 220.0  1.39 119.6  36.0  1.00  0.25  0.62  0.00  0.00   0.0  0.00  0.00  0.00
 1981 137   167   122  25.5 1.910  62.7 0.791  0.96  64.1 1.840 0.186 2.026  2664   208   148  2309   839   803  2583 0.528    46 39.40 108.6  2.00     2 220.0  1.40 120.2  38.8  1.00  0.25  0.63  0.00  0.00   0.0  0.00  0.00  0.00
 1981 138   168   123  25.0 1.919  62.9 0.791  1.16  57.4 1.841 0.186 2.027  2711   209   148  2319   839   811  2621 0.531    46 40.38 111.0  2.00     2 220.0  1.41 120.8  53.3  1.00  0.26  0.63  0.00  0.00   0.0  0.00  0.00  0.00
 1981 139   169   124  24.7 1.928  63.1 0.791  1.04  77.0 1.842 0.186 2.028  2802   210   147  2330   840   820  2701 0.537    47 41.17 113.3  2.00     2 220.0  1.42 121.3  35.8  1.00  0.27  0.63  0.00  0.00   0.0  0.02  0.00  0.00
 1981 140   170   125  24.9 1.938  63.4 0.791  1.02  77.9 1.842 0.186 2.028  2879   211   147  2339   840   829  2769 0.542    47 42.26 115.7  2.00     2 220.0  1.44 121.9  34.9  1.00  0.27  0.64  0.00  0.00   0.0  0.01  0.00  0.00
 1981 141   171   126  24.0 1.947  63.6 0.791  0.93  65.0 1.842 0.186 2.028  2939   211   146  2349   840   837  2820 0.546    47 43.31 117.9  2.00     2 220.0  1.45 122.5  38.9  1.00  0.28  0.64  0.00  0.00   0.0  0.06  0.00  0.00
 1981 142   172   127  24.4 1.957  63.8 0.791  1.04  70.6 1.843 0.186 2.029  3008   212   146  2359   840   846  2878 0.550    47 44.15 120.2  2.00     2 220.0  1.46 123.0  39.9  1.00  0.28  0.64  0.00  0.00   0.0  0.04  0.00  0.00
 1981 143   173   128  23.6 1.966  64.0 0.791  0.89  74.0 1.844 0.186 2.030  3088   213   146  2369   840   854  2950 0.555    47 45.06 122.4  2.00     2 220.0  1.47 123.6  33.2  1.00  0.29  0.64  0.00  0.00   0.0  0.09  0.03  0.00
 1981 144   174   129  23.5 1.975  64.1 0.791  0.78  62.8 1.843 0.186 2.029  3148   214   145  2377   840   862  3002 0.558    48 46.23 124.7  2.00     2 220.0  1.48 124.2  34.3  1.00  0.29  0.65  0.00  0.00   0.0  0.10  0.05  0.00
 1981 145   175   130  24.0 1.984  64.3 0.791  1.08  64.7 1.840 0.186 2.026  3203   215   145  2385   839   870  3049 0.561    48 47.62 126.9  2.00     2 220.0  1.49 124.7  46.5  1.00  0.30  0.65  0.00  0.00   0.0  0.07  0.00  0.00
 1981 146   176   131  23.3 1.993  64.5 0.791  0.94  74.7 1.840 0.186 2.026  3286   216   144  2393   838   878  3125 0.566    48 48.60 129.0  2.00     2 220.0  1.50 125.1  35.6  1.00  0.30  0.65  0.00  0.00   0.0  0.11  0.06  0.00
 1981 147   177   132  23.9 2.002  64.7 0.790  0.91  76.1 1.837 0.186 2.023  3363   217   144  2400   837   886  3195 0.571    48 50.15 131.2  2.00     7 220.0  1.50 124.4  33.0  1.00  0.31  0.65  0.00  0.00   0.0  0.07  0.01  0.00
 1981 148   178   133  23.9 2.011  64.9 0.789  0.89  68.2 1.832 0.185 2.017  3426   218   143  2406   835   894  3252 0.575    48 52.07 133.3  2.00     7 220.0  1.50 123.7  35.9  1.00  0.31  0.66  0.00  0.00   0.0  0.08  0.01  0.00
 1981 149   179   134  25.1 2.020  65.1 0.788  0.68  51.8 1.824 0.184 2.009  3474   218   143  2410   831   902  3298 0.578    48 54.61 135.5  2.00     7 220.0  1.50 123.0  34.8  1.00  0.32  0.66  0.00  0.00   0.0  0.00  0.00  0.00
 1981 150   180   135  24.9 2.029  65.3 0.787  1.13  77.9 1.819 0.184 2.003  3547   219   142  2414   828   910  3367 0.582    48 56.57 137.7  2.00     7 220.0  1.50 122.3  38.9  1.00  0.32  0.66  0.00  0.00   0.0  0.01  0.00  0.00
 1981 151   181   136  25.5 2.037  65.5 0.785  1.15  69.5 1.808 0.182 1.990  3608   220   141  2415   823   918  3428 0.587    48 59.35 139.9  2.00     7 220.0  1.50 121.6  43.8  1.00  0.33  0.66  0.00  0.00   0.0  0.00  0.00  0.00
 1981 152   182   137  24.2 2.046  65.7 0.783  1.03  71.2 1.797 0.181 1.978  3681   221   140  2416   818   926  3501 0.592    48 61.98 142.1  2.00     7 220.0  1.50 120.9  38.6  1.00  0.33  0.67  0.00  0.00   0.0  0.05  0.00  0.00
 1981 153   183   138  24.0 2.055  65.9 0.781  0.99  58.3 1.787 0.181 1.967  3731   222   141  2422   816   934  3545 0.594    48 64.60 144.2  2.00     7 220.0  1.50 120.3  45.2  1.00  0.33  0.67  0.00  0.00   0.0  0.07  0.00  0.00
 1981 154   184   139  24.2 2.063  66.0 0.780  0.83  60.6 1.780 0.180 1.961  3796   223   141  2427   813   942  3604 0.598    49 67.63 146.3  2.00     7 220.0  1.50 119.7  36.3  1.00  0.33  0.67  0.00  0.00   0.0  0.05  0.00  0.00
 1981 155   185   140  25.6 2.072  66.3 0.778  0.79  61.7 1.773 0.179 1.952  3857   223   141  2430   809   951  3662 0.601    49 70.94 148.5  2.00     7 220.0  1.50 119.1  32.7  1.00  0.33  0.67  0.00  0.00   0.0  0.00  0.00  0.00
 1981 156   186   141  26.1 2.080  66.5 0.776  0.97  62.0 1.761 0.178 1.939  3910   224   141  2431   803   959  3714 0.604    49 74.80 150.7  2.00     7 220.0  1.50 118.5  39.5  1.00  0.33  0.67  0.00  0.00   0.0  0.00  0.00  0.00
 1981 157   187   142  26.6 2.088  66.7 0.773  0.89  67.4 1.743 0.176 1.920  3978   225   141  2428   795   967  3785 0.609    49 79.61 153.1  2.00     7 220.0  1.50 117.9  33.1  1.00  0.33  0.67  0.00  0.00   0.0  0.00  0.00  0.00
 1981 158   188   143  25.5 2.096  66.9 0.769  0.78  61.1 1.725 0.175 1.900  4036   226   142  2429   790   976  3841 0.613    49 84.76 155.4  2.00     7 220.0  1.50 117.3  32.2  1.00  0.33  0.67  0.00  0.00   0.0  0.00  0.00  0.00
 1981 159   189   144  25.0 2.104  67.1 0.768  1.09  63.5 1.717 0.174 1.891  4089   227   143  2433   786   984  3888 0.615    49 88.95 157.8  2.00     7 220.0  1.50 116.7  43.6  1.00  0.33  0.67  0.00  0.00   0.0  0.00  0.00  0.00
 1981 160   190   145  24.8 2.113  67.3 0.765  1.04  58.0 1.706 0.173 1.879  4141   227   145  2435   781   993  3937 0.618    49 93.87 160.2  2.00     7 220.0  1.50 116.1  45.7  1.00  0.33  0.67  0.00  0.00   0.0  0.01  0.00  0.00
 1981 161   191   146  24.9 2.121  67.5 0.762  1.08  74.0 1.690 0.171 1.861  4216   228   145  2430   771  1002  4018 0.623    49 99.68 162.5  2.00     7 220.0  1.50 115.5  36.9  1.00  0.33  0.66  0.00  0.00   0.0  0.01  0.00  0.00
 1981 162   192   147  23.6 2.130  67.6 0.758  0.97  72.3 1.670 0.169 1.839  4286   229   144  2425   762  1010  4093 0.628    48 105.1 164.8  2.00     7 220.0  1.50 114.8  34.7  1.00  0.33  0.67  0.00  0.00   0.0  0.09  0.03  0.00
 1981 163   193   148  23.9 2.139  67.8 0.755  0.97  65.8 1.654 0.168 1.821  4345   230   146  2428   757  1019  4148 0.631    49 109.7 166.9  2.00     7 220.0  1.50 114.2  37.5  1.00  0.33  0.67  0.00  0.00   0.0  0.07  0.01  0.00
 1981 164   194   149  24.1 2.147  68.0 0.751  1.01  59.3 1.636 0.166 1.802  4395   231   147  2426   749  1028  4199 0.634    49 115.9 169.1  2.00     7 220.0  1.50 113.5  43.1  1.00  0.33  0.67  0.00  0.00   0.0  0.06  0.00  0.00
 1981 165   195   150  24.7 2.156  68.2 0.744  1.15  70.6 1.603 0.163 1.766  4460   231   148  2413   734  1037  4274 0.639    48 125.1 171.3  2.00     7 220.0  1.50 112.9  40.4  1.00  0.33  0.67  0.00  0.00   0.0  0.02  0.00  0.00
 1981 166   196   151  24.7 2.165  68.4 0.738  0.95  70.7 1.575 0.159 1.735  4530   232   148  2400   719  1047  4358 0.645    48 133.3 173.5  2.00     7 220.0  1.50 112.2  33.0  1.00  0.33  0.66  0.00  0.00   0.0  0.02  0.00  0.00
 1981 167   197   152  24.7 2.174  68.6 0.729  1.18  63.6 1.536 0.155 1.691  4574   233   148  2382   701  1056  4420 0.650    48 142.7 175.7  2.00     7 220.0  1.50 111.5  45.7  1.00  0.33  0.67  0.00  0.00   0.0  0.02  0.00  0.00
 1981 168   198   153  24.3 2.182  68.7 0.718  0.90  61.1 1.488 0.151 1.639  4634   234   150  2364   682  1065  4496 0.655    47 153.6 177.9  2.00     7 220.0  1.50 110.9  36.2  1.00  0.33  0.67  0.00  0.00   0.0  0.04  0.00  0.00
 1981 169   199   154  22.8 2.191  68.9 0.709  0.77  58.7 1.452 0.147 1.599  4687   234   150  2347   664  1074  4566 0.661    47 163.4 180.2  2.00     7 220.0  1.50 110.2  32.7  1.00  0.33  0.67  0.00  0.00   0.0  0.15  0.10  0.00
 1981 170   200   155  23.4 2.199  69.1 0.700  0.89  61.3 1.418 0.144 1.562  4738   235   151  2334   650  1083  4628 0.665    47 172.3 182.4  2.00     7 220.0  1.50 109.5  35.7  1.00  0.33  0.67  0.00  0.00   0.0  0.11  0.05  0.00
 1981 171   201   156  23.4 2.207  69.2 0.692  0.85  60.1 1.385 0.141 1.525  4790   236   152  2321   634  1092  4693 0.669    46 181.4 184.7  2.00     7 220.0  1.50 108.8  34.6  1.00  0.33  0.67  0.00  0.00   0.0  0.11  0.05  0.00
 1981 172   202   157  22.5 2.216  69.4 0.681  0.74  53.7 1.343 0.136 1.479  4834   236   152  2297   613  1100  4761 0.675    46 192.1 187.0  2.00     7 220.0  1.50 108.1  33.8  1.00  0.33  0.67  0.00  0.00   0.0  0.16  0.12  0.00
 1981 173   203   158  24.0 2.224  69.6 0.663  0.89  60.9 1.281 0.130 1.411  4880   237   152  2265   585  1109  4839 0.681    45 205.6 189.2  2.00     7 220.0  1.50 107.4  34.8  1.00  0.34  0.67  0.00  0.00   0.0  0.07  0.00  0.00
 1981 174   204   159  22.5 2.232  69.7 0.651  0.88  57.3 1.240 0.126 1.365  4926   238   152  2247   568  1118  4902 0.686    45 215.4 191.5  2.00     7 220.0  1.50 106.8  37.5  1.00  0.34  0.67  0.00  0.00   0.0  0.17  0.13  0.00
 1981 175   205   160  21.9 2.240  69.9 0.640  1.04  58.5 1.200 0.122 1.322  4971   238   152  2228   549  1126  4966 0.690    45 225.1 193.6  2.00     7 220.0  1.50 106.2  44.0  1.00  0.34  0.67  0.00  0.00   0.0  0.21  0.18  0.00
 1981 176   206   161  22.1 2.247  70.0 0.623  1.18  52.0 1.149 0.117 1.265  5005   239   153  2202   526  1134  5026 0.695    44 237.3 195.7  2.00     7 220.0  1.50 105.5  55.8  1.00  0.34  0.67  0.00  0.00   0.0  0.19  0.16  0.00
 1981 177   207   162  22.8 2.254  70.1 0.606  1.08  49.8 1.095 0.111 1.206  5044   240   154  2175   502  1142  5092 0.701    43 249.9 197.7  2.00     7 220.0  1.50 104.9  52.2  1.00  0.34  0.67  0.00  0.00   0.0  0.15  0.10  0.00
 1981 178   208   163  22.0 2.262  70.3 0.592  1.10  48.6 1.056 0.107 1.163  5082   240   154  2153   482  1150  5152 0.705    43 259.8 199.7  2.00     7 220.0  1.50 104.3  54.9  1.00  0.34  0.67  0.00  0.00   0.0  0.20  0.16  0.00
 1981 179   209   164  23.8 2.269  70.5 0.574  0.96  59.0 1.004 0.102 1.106  5139   241   154  2128   459  1160  5233 0.711    43 271.1 201.6  2.00     7 220.0  1.50 103.8  37.9  1.00  0.35  0.67  0.00  0.00   0.0  0.08  0.02  0.00
 1981 180   210   165  23.5 2.278  70.6 0.555  0.92  50.8 0.953 0.097 1.050  5176   242   154  2103   436  1169  5295 0.716    42 282.6 203.6  2.00     7 220.0  1.50 103.2  42.1  1.00  0.35  0.67  0.00  0.00   0.0  0.10  0.04  0.00
 1981 181   211   166  23.2 2.286  70.8 0.536  0.90  41.3 0.902 0.092     1  5202   242   155  2081   415  1178  5343 0.720    42 294.1 205.7  2.00     7 220.0  1.50 102.6  50.9  1.00  0.35  0.68  0.00  0.00   0.0  0.12  0.07  0.00
 1981 182   212   167  24.6 2.294  71.0 0.518  0.90  49.4 0.859 0.088 0.946  5246   243   156  2062   395  1188  5404 0.724    41 304.9 207.9  2.00     7 220.0  1.50 102.1  41.0  1.00  0.35  0.68  0.00  0.00   0.0  0.03  0.00  0.00
 1981 183   213   168  24.4 2.303  71.1 0.503  0.85  39.4 0.823 0.084 0.907  5273   244   157  2048   379  1198  5444 0.727    41 314.5 210.2  2.00     7 220.0  1.50 101.5  48.5  1.00  0.35  0.68  0.00  0.00   0.0  0.04  0.00  0.00
 1981 184   214   169  23.8 2.311  71.3 0.487  0.60  32.0 0.784 0.080 0.864  5298   244   157  2028   359  1207  5489 0.730    41 324.6 212.6  2.00     7 220.0  1.50 101.0  42.4  1.00  0.35  0.68  0.00  0.00   0.0  0.08  0.01  0.00
 1981 185   215   170  23.0 2.320  71.4 0.472  0.82  43.1 0.752 0.076 0.829  5332   245   156  2015   344  1216  5537 0.733    40 332.2 215.0  2.00     7 220.0  1.50 100.5  43.8  1.00  0.35  0.68  0.00  0.00   0.0  0.13  0.08  0.00
 1981 186   216   171  21.3 2.328  71.6 0.462  1.24  35.3 0.730 0.074 0.804  5351   245   155  2007   333  1224  5565 0.735    40 337.6 217.3  2.00     7 220.0  1.50  99.9  84.1  1.00  0.36  0.68  0.00  0.00   0.0  0.24  0.22  0.00
 1981 187   217   172  21.8 2.334  71.7 0.452  1.27  32.2 0.708 0.072 0.780  5377   246   156  2003   325  1232  5594 0.736    40 342.8 219.4  2.00     7 220.0  1.50  99.4  92.6  1.00  0.36  0.68  0.00  0.00   0.0  0.22  0.19  0.00
 1981 188   218   173  21.4 2.341  71.8 0.442  1.24  28.4 0.687 0.070 0.756  5398   246   156  1996   315  1239  5622 0.738    40 348.6 221.4  2.00     7 220.0  1.50  98.9  99.9  1.00  0.36  0.68  0.00  0.00   0.0  0.24  0.22  0.00
 1981 189   219   174  22.9 2.348  72.0 0.433  1.14  31.8 0.668 0.068 0.736  5429   247   157  1994   308  1248  5654 0.739    40 353.7 223.2  2.00     7 220.0  1.50  98.4  81.6  1.00  0.36  0.68  0.00  0.00   0.0  0.14  0.10  0.00
 1981 190   220   175  22.5 2.355  72.1 0.429  1.12  37.8 0.659 0.067 0.726  5467   248   158  1997   303  1257  5689 0.740    40 357.3 224.9  2.00     7 220.0  1.50  98.0  67.4  1.00  0.36  0.68  0.00  0.00   0.0  0.17  0.13  0.00
 1981 191   221   176  24.0 2.363  72.3 0.421  0.97  40.2 0.643 0.065 0.708  5507   248   158  1994   294  1267  5731 0.742    40 362.3 226.8  2.00     7 220.0  1.50  97.5  52.8  1.00  0.36  0.68  0.00  0.00   0.0  0.07  0.00  0.00
 1981 192   222   177  23.6 2.371  72.4 0.415  0.93  41.4 0.631 0.064 0.695  5546   249   158  1996   289  1276  5769 0.743    40 365.8 228.8  2.00     7 220.0  1.50  97.0  49.3  1.00  0.37  0.68  0.00  0.00   0.0  0.09  0.03  0.00
 1981 193   223   178  24.1 2.379  72.6 0.409  0.95  35.7 0.619 0.063 0.682  5575   249   158  1998   284  1286  5795 0.744    40 369.2 231.0  2.00     7 220.0  1.50  96.5  58.1  1.00  0.37  0.68  0.00  0.00   0.0  0.06  0.00  0.00
 1981 194   224   179  24.5 2.388  72.8 0.403  0.86  32.5 0.607 0.062 0.669  5606   250   159  2004   280  1296  5818 0.744    40 372.7 233.2  2.00     7 220.0  1.50  96.1  56.3  1.00  0.37  0.68  0.00  0.00   0.0  0.04  0.00  0.00
 1981 195   225   180  22.4 2.396  72.9 0.402  1.15  32.4 0.605 0.062 0.666  5632   251   159  2011   278  1304  5838 0.744    40 375.2 235.5  2.00     7 220.0  1.50  95.6  79.2  1.00  0.37  0.69  0.00  0.00   0.0  0.17  0.13  0.00
 1981 196   226   181  23.8 2.403  73.1 0.400  0.81  35.4 0.601 0.062 0.663  5674   251   160  2020   278  1314  5870 0.744    40 377.4 237.8  2.00     7 220.0  1.50  95.1  49.3  1.00  0.37  0.69  0.00  0.00   0.0  0.08  0.02  0.00
 1981 197   227   182  23.5 2.411  73.2 0.399  0.84  33.6 0.599 0.061 0.660  5704   252   160  2026   275  1324  5894 0.744    41 379.8 240.2  2.00     7 220.0  1.50  94.7  53.9  1.00  0.37  0.69  0.00  0.00   0.0  0.10  0.04  0.00
 1981 198   228   183  23.6 2.420  73.4 0.395  0.94  38.4 0.592 0.060 0.652  5740   252   159  2031   271  1333  5926 0.745    41 382.2 242.5  2.00     7 220.0  1.50  94.2  52.3  1.00  0.37  0.69  0.00  0.00   0.0  0.09  0.03  0.00
 1981 199   229   184  24.4 2.428  73.5 0.392  0.85  33.2 0.585 0.059 0.645  5769   253   159  2037   268  1343  5950 0.745    41 384.6 244.8  2.00     7 220.0  1.50  93.8  53.9  1.00  0.38  0.69  0.00  0.00   0.0  0.04  0.00  0.00
 1981 200   230   185  23.9 2.436  73.7 0.389  0.83  33.9 0.581 0.059 0.640  5803   254   160  2048   268  1353  5971 0.745    41 386.5 247.2  2.00     7 220.0  1.50  93.4  51.7  1.00  0.38  0.69  0.00  0.00   0.0  0.07  0.01  0.00
 1981 201   231   186  23.6 2.444  73.8 0.389  0.84  35.1 0.579 0.059 0.638  5837   254   160  2057   267  1363  5995 0.745    41 388.7 249.7  2.00     7 220.0  1.50  92.9  50.3  1.00  0.38  0.69  0.00  0.00   0.0  0.09  0.03  0.00
 1981 202   232   187  22.9 2.452  74.0 0.388  0.86  33.2 0.578 0.059 0.637  5867   255   161  2065   266  1372  6017 0.744    41 390.8 252.1  2.00     7 220.0  1.50  92.5  55.3  1.00  0.38  0.69  0.00  0.00   0.0  0.14  0.09  0.00
 1981 203   233   188  23.3 2.460  74.1 0.389  0.63  27.2 0.579 0.059 0.638  5894   255   160  2074   265  1381  6036 0.744    41 392.2 254.5  2.00     7 220.0  1.50  92.1  48.5  1.00  0.38  0.69  0.00  0.00   0.0  0.11  0.06  0.00
 1981 204   234   189  23.5 2.467  74.3 0.386  0.82  29.0 0.574 0.058 0.632  5918   256   160  2080   263  1390  6055 0.744    42 394.2 257.0  2.00     7 220.0  1.50  91.7  59.0  1.00  0.38  0.69  0.00  0.00   0.0  0.10  0.04  0.00
 1981 205   235   190  22.2 2.475  74.4 0.384  0.86  37.1 0.569 0.058 0.627  5956   256   159  2085   260  1399  6088 0.745    42 396.0 259.3  2.00     7 220.0  1.50  91.3  49.4  1.00  0.39  0.69  0.00  0.00   0.0  0.18  0.15  0.00
 1981 206   236   191  24.1 2.482  74.6 0.381  0.88  33.3 0.565 0.057 0.622  5985   257   159  2094   259  1409  6109 0.745    42 397.6 261.7  2.00     7 220.0  1.50  90.9  54.2  1.00  0.39  0.69  0.00  0.00   0.0  0.06  0.00  0.00
 1981 207   237   192  23.2 2.490  74.7 0.381  0.80  32.1 0.565 0.058 0.623  6018   257   159  2106   260  1418  6128 0.744    42 398.5 264.1  2.00     7 220.0  1.50  90.5  51.6  1.00  0.39  0.69  0.00  0.00   0.0  0.12  0.07  0.00
 1981 208   238   193  22.9 2.498  74.8 0.382  0.81  29.1 0.566 0.058 0.624  6044   258   159  2117   261  1427  6144 0.744    42 400.0 266.4  2.00     7 220.0  1.50  90.1  57.7  1.00  0.39  0.70  0.00  0.00   0.0  0.14  0.09  0.00
 1981 209   239   194  22.8 2.505  75.0 0.381  0.99  31.5 0.565 0.057 0.622  6072   259   159  2123   259  1436  6166 0.744    42 401.7 268.7  2.00     7 220.0  1.50  89.7  65.4  1.00  0.39  0.70  0.00  0.00   0.0  0.15  0.10  0.00
 1981 210   240   195  23.0 2.512  75.1 0.381  0.90  34.3 0.564 0.057 0.622  6108   259   158  2132   258  1445  6193 0.744    43 402.6 271.0  2.00     7 220.0  1.50  89.3  53.6  1.00  0.39  0.70  0.00  0.00   0.0  0.13  0.08  0.00
 1981 211   241   196  22.7 2.520  75.2 0.380  0.84  36.0 0.563 0.057 0.620  6144   260   158  2141   258  1454  6222 0.744    43 403.6 273.2  2.00     7 220.0  1.50  88.9  47.7  1.00  0.40  0.70  0.00  0.00   0.0  0.15  0.11  0.00
 1981 212   242   197  22.3 2.527  75.4 0.378  0.77  33.1 0.559 0.057 0.615  6175   260   157  2147   256  1462  6247 0.744    43 405.2 275.5  2.00     7 220.0  1.50  88.5  47.9  1.00  0.40  0.70  0.00  0.00   0.0  0.18  0.14  0.00
 1981 213   243   198  23.2 2.534  75.5 0.375  0.83  34.5 0.554 0.056 0.610  6207   261   157  2153   253  1471  6273 0.744    43 407.0 277.7  2.00     7 220.0  1.50  88.2  48.3  1.00  0.40  0.70  0.00  0.00   0.0  0.12  0.07  0.00
 1981 214   244   199  23.5 2.541  75.6 0.373  0.79  33.6 0.549 0.056 0.606  6240   261   157  2163   253  1481  6295 0.744    43 408.6 280.0  2.00     7 220.0  1.50  87.8  47.1  1.00  0.40  0.70  0.00  0.00   0.0  0.10  0.05  0.00
 1981 215   245   200  22.5 2.549  75.8 0.375  0.85  31.0 0.554 0.056 0.610  6268   261   158  2175   255  1490  6312 0.744    43 409.4 282.3  2.00     7 220.0  1.50  87.4  55.4  1.00  0.40  0.70  0.00  0.00   0.0  0.17  0.12  0.00
 1981 216   246   201  23.3 2.556  75.9 0.377  0.89  33.1 0.556 0.057 0.613  6301   262   158  2187   256  1499  6332 0.743    44 410.3 284.6  2.00     7 220.0  1.50  87.1  53.5  1.00  0.40  0.70  0.00  0.00   0.0  0.11  0.05  0.00
 1981 217   247   202  22.3 2.563  76.0 0.378  1.18  36.2 0.558 0.057 0.614  6332   262   157  2194   255  1507  6357 0.743    44 411.5 286.8  2.00     7 220.0  1.50  86.7  66.2  1.00  0.40  0.70  0.00  0.00   0.0  0.18  0.14  0.00
 1981 218   248   203  23.2 2.570  76.2 0.377  1.01  40.0 0.556 0.056 0.612  6376   263   157  2203   254  1517  6392 0.744    44 412.5 289.0  2.00     7 220.0  1.50  86.3  50.3  1.00  0.41  0.70  0.00  0.00   0.0  0.12  0.07  0.00
 1981 219   249   204  23.5 2.577  76.3 0.377  0.77  32.5 0.556 0.056 0.612  6409   263   157  2213   254  1526  6415 0.743    44 413.3 291.3  2.00     7 220.0  1.50  86.0  46.3  1.00  0.41  0.70  0.00  0.00   0.0  0.10  0.04  0.00
 1981 220   250   205  24.1 2.585  76.5 0.376  0.98  37.2 0.556 0.056 0.612  6443   264   156  2224   255  1536  6439 0.743    44 414.2 293.5  2.00     7 220.0  1.50  85.6  51.0  1.00  0.41  0.70  0.00  0.00   0.0  0.06  0.00  0.00
 1981 221   251   206  24.2 2.593  76.6 0.377  0.85  32.9 0.556 0.056 0.612  6476   264   156  2234   255  1545  6461 0.743    45 415.0 295.7  2.00     7 220.0  1.50  85.3  49.5  1.00  0.41  0.71  0.00  0.00   0.0  0.05  0.00  0.00
 1981 222   252   207  24.1 2.601  76.8 0.375  0.97  34.7 0.554 0.057 0.610  6509   265   157  2246   256  1555  6481 0.743    45 416.3 298.1  2.00     7 220.0  1.50  85.0  53.3  1.00  0.41  0.71  0.00  0.00   0.0  0.06  0.00  0.00
 1981 223   253   208  24.4 2.608  76.9 0.377  0.75  32.3 0.557 0.057 0.613  6543   266   156  2256   255  1565  6506 0.743    45 417.4 300.5  2.00     7 220.0  1.50  84.6  43.9  1.00  0.41  0.71  0.00  0.00   0.0  0.04  0.00  0.00
 1981 224   254   209  23.5 2.616  77.1 0.377  0.78  34.7 0.557 0.057 0.614  6577   266   156  2266   255  1574  6531 0.742    45 418.2 302.9  2.00     7 220.0  1.50  84.3  43.3  1.00  0.41  0.71  0.00  0.00   0.0  0.10  0.04  0.00
 1981 225   255   210  23.0 2.624  77.2 0.377  0.69  30.6 0.558 0.057 0.614  6606   266   155  2276   255  1583  6551 0.742    46 418.9 305.3  2.00     7 220.0  1.50  84.0  43.5  1.00  0.42  0.71  0.00  0.00   0.0  0.13  0.08  0.00
 1981 226   256   211  24.2 2.631  77.3 0.377  0.49  21.4 0.556 0.056 0.613  6626   267   155  2286   255  1593  6561 0.742    46 419.8 307.8  2.00     7 220.0  1.50  83.6  42.8  1.00  0.42  0.71  0.00  0.00   0.0  0.06  0.00  0.00
 1981 227   257   212  26.3 2.639  77.5 0.374  0.14   6.1 0.552 0.056 0.608  6634   267   153  2290   253  1599  6567 0.741    46 421.6 310.4  2.00     7 220.0  1.50  83.3  39.4  1.00  0.42  0.71  0.00  0.00   0.0  0.00  0.00  0.00
 1981 228   258   213  26.4 2.645  77.7 0.374  0.70  29.0 0.551 0.056 0.607  6661   268   153  2299   252  1609  6585 0.741    46 422.6 313.0  2.00     7 220.0  1.50  83.0  43.4  1.00  0.42  0.71  0.00  0.00   0.0  0.00  0.00  0.00
 1981 229   259   214  24.8 2.652  77.8 0.374  0.90  32.5 0.551 0.056 0.607  6691   268   153  2313   254  1619  6601 0.741    46 423.4 315.6  2.00     7 220.0  1.50  82.7  51.3  1.00  0.42  0.71  0.00  0.00   0.0  0.02  0.00  0.00
 1981 230   260   215  25.6 2.660  78.0 0.376  0.86  31.6 0.555 0.056 0.611  6722   269   152  2323   254  1629  6622 0.740    46 424.2 318.2  2.00     7 220.0  1.50  82.4  49.1  1.00  0.42  0.71  0.00  0.00   0.0  0.00  0.00  0.00
 1981 231   261   216  25.1 2.667  78.1 0.375  0.66  27.2 0.552 0.056 0.608  6749   269   152  2331   253  1638  6641 0.740    47 425.7 320.8  2.00     7 220.0  1.50  82.0  44.0  1.00  0.42  0.71  0.00  0.00   0.0  0.00  0.00  0.00
 1981 232   262   217  23.5 2.674  78.3 0.375  1.17  31.1 0.553 0.056 0.609  6773   270   151  2342   253  1648  6657 0.740    47 426.3 323.3  2.00     7 220.0  1.50  81.7  70.5  1.00  0.42  0.71  0.00  0.00   0.0  0.10  0.04  0.00
 1981 233   263   218  23.5 2.681  78.4 0.375  1.16  26.9 0.553 0.056 0.609  6797   270   151  2352   253  1657  6671 0.739    47 427.0 325.6  2.00     7 220.0  1.50  81.4  80.4  1.00  0.43  0.71  0.00  0.00   0.0  0.10  0.04  0.00
 1981 234   264   219  23.0 2.689  78.5 0.375  0.91  37.3 0.554 0.056 0.610  6844   271   150  2361   253  1666  6708 0.740    47 427.6 327.8  2.00     7 220.0  1.50  81.1  45.8  1.00  0.43  0.71  0.00  0.00   0.0  0.14  0.09  0.00
 1981 235   265   220  22.4 2.696  78.7 0.376  1.09  31.4 0.554 0.056 0.610  6869   271   150  2372   254  1674  6723 0.739    47 428.2 329.9  2.00     7 220.0  1.50  80.8  65.9  1.00  0.43  0.71  0.00  0.00   0.0  0.18  0.14  0.00
 1981 236   266   221  25.5 2.702  78.8 0.377  0.85  34.8 0.556 0.057 0.613  6911   271   151  2385   256  1684  6750 0.739    48 429.0 332.0  2.00     7 220.0  1.50  80.5  43.3  1.00  0.43  0.71  0.00  0.00   0.0  0.00  0.00  0.00
 1981 237   267   222  25.3 2.709  79.0 0.380  0.83  33.4 0.563 0.058 0.621  6944   272   152  2401   260  1694  6768 0.738    48 429.1 334.2  2.00     7 220.0  1.50  80.2  43.8  1.00  0.43  0.72  0.00  0.00   0.0  0.00  0.00  0.00
 1981 238   268   223  26.2 2.716  79.1 0.381  0.80  31.8 0.564 0.057 0.621  6974   272   151  2409   258  1703  6790 0.738    48 430.5 336.5  2.00     7 220.0  1.50  79.9  43.4  1.00  0.43  0.72  0.00  0.00   0.0  0.00  0.00  0.00
 1981 239   269   224  26.2 2.723  79.3 0.377  0.60  26.1 0.557 0.057 0.614  6999   273   151  2415   255  1713  6809 0.738    48 432.7 339.0  2.00     7 220.0  1.50  79.7  39.9  1.00  0.43  0.72  0.00  0.00   0.0  0.00  0.00  0.00
 1981 240   270   225  23.6 2.730  79.4 0.375  0.62  28.7 0.552 0.056 0.608  7026   273   150  2421   253  1722  6831 0.738    48 434.5 341.5  2.00     7 220.0  1.50  79.4  38.7  1.00  0.43  0.72  0.00  0.00   0.0  0.09  0.03  0.00
 1981 241   271   226  24.6 2.737  79.6 0.371  0.66  27.2 0.546 0.055 0.602  7049   274   150  2427   250  1732  6848 0.738    49 436.4 344.1  2.00     7 220.0  1.50  79.1  42.5  1.00  0.43  0.72  0.00  0.00   0.0  0.03  0.00  0.00
 1981 242   272   227  26.8 2.744  79.7 0.368  0.86  32.6 0.539 0.055 0.594  7079   274   150  2435   248  1741  6870 0.738    49 438.7 346.6  2.00     7 220.0  1.50  78.8  44.6  1.00  0.44  0.72  0.00  0.00   0.0  0.00  0.00  0.00
 1981 243   273   228  23.8 2.751  79.9 0.366  0.74  32.6 0.535 0.054 0.590  7111   275   149  2440   245  1751  6898 0.739    49 441.0 349.2  2.00     7 220.0  1.50  78.5  40.1  1.00  0.44  0.72  0.00  0.00   0.0  0.08  0.02  0.00
 1981 244   274   229  24.8 2.758  80.0 0.362  0.92  31.8 0.530 0.054 0.583  7137   275   149  2447   242  1761  6918 0.739    49 442.8 351.7  2.00     7 220.0  1.50  78.2  50.4  1.00  0.44  0.72  0.00  0.00   0.0  0.02  0.00  0.00
 1981 245   275   230  24.4 2.765  80.2 0.360  0.57  24.0 0.524 0.053 0.577  7162   276   148  2453   240  1770  6937 0.739    49 444.7 354.2  2.00     7 220.0  1.50  78.0  41.2  1.00  0.44  0.72  0.00  0.00   0.0  0.04  0.00  0.00
 1981 246   276   231  24.8 2.773  80.3 0.357  0.74  30.9 0.519 0.053 0.571  7190   276   147  2459   237  1780  6959 0.739    49 446.5 356.6  2.00     7 220.0  1.50  77.7  41.3  1.00  0.44  0.72  0.00  0.00   0.0  0.02  0.00  0.00
 1981 247   277   232  24.9 2.780  80.4 0.353  0.48  20.7 0.513 0.052 0.565  7209   276   147  2466   235  1789  6972 0.739    49 448.4 359.1  2.00     7 220.0  1.50  77.4  40.0  1.00  0.44  0.72  0.00  0.00   0.0  0.01  0.00  0.00
 1981 248   278   233  26.1 2.787  80.6 0.347  0.25  10.8 0.502 0.051 0.553  7219   277   146  2468   230  1799  6981 0.739    49 451.5 361.6  2.00     7 220.0  1.50  77.1  37.8  1.00  0.44  0.72  0.00  0.00   0.0  0.00  0.00  0.00
 1981 249   279   234  26.2 2.794  80.8 0.343  0.71  28.3 0.494 0.051 0.545  7245   277   146  2476   228  1809  6999 0.739    50 453.7 364.1  2.00     7 220.0  1.50  76.9  42.1  1.00  0.44  0.72  0.00  0.00   0.0  0.00  0.00  0.00
 1981 250   280   235  25.0 2.800  80.9 0.342  0.62  25.1 0.492 0.050 0.542  7267   278   146  2482   225  1818  7016 0.739    50 455.7 366.6  2.00     7 220.0  1.50  76.6  41.7  1.00  0.44  0.72  0.00  0.00   0.0  0.00  0.00  0.00
 1981 251   281   236  23.3 2.807  81.0 0.339  1.09  32.5 0.487 0.049 0.536  7294   278   145  2487   223  1827  7038 0.739    50 457.5 369.1  2.00     7 220.0  1.50  76.3  58.8  1.00  0.44  0.72  0.00  0.00   0.0  0.11  0.06  0.00
 1981 252   282   237  23.4 2.814  81.2 0.336  1.11  29.2 0.481 0.049 0.530  7319   278   144  2493   220  1836  7057 0.739    50 459.3 371.5  2.00     7 220.0  1.50  76.1  66.8  1.00  0.44  0.72  0.00  0.00   0.0  0.11  0.05  0.00
 1981 253   283   238  24.2 2.821  81.3 0.329  0.92  30.1 0.469 0.048 0.517  7349   279   144  2496   215  1846  7086 0.740    50 462.3 373.7  2.00     7 220.0  1.50  75.8  52.1  1.00  0.45  0.72  0.00  0.00   0.0  0.05  0.00  0.00
 1981 254   284   239  24.2 2.829  81.4 0.326  0.80  28.0 0.464 0.047 0.511  7376   279   144  2502   213  1855  7107 0.740    50 464.1 375.9  2.00     7 220.0  1.50  75.6  48.8  1.00  0.45  0.72  0.00  0.00   0.0  0.05  0.00  0.00
 1981 255   285   240  23.8 2.836  81.5 0.323  1.06  23.3 0.459 0.047 0.506  7392   280   143  2508   210  1864  7117 0.739    50 465.8 378.0  2.00     7 220.0  1.50  75.3  78.1  1.00  0.45  0.72  0.00  0.00   0.0  0.08  0.02  0.00
 1981 256   286   241  25.4 2.843  81.7 0.320  0.55  22.4 0.453 0.046 0.499  7423   280   144  2517   209  1874  7138 0.739    50 467.8 380.1  2.00     7 220.0  1.50  75.0  40.7  1.00  0.45  0.72  0.00  0.00   0.0  0.00  0.00  0.00
 1981 257   287   242  24.7 2.850  81.8 0.318  0.90  32.4 0.451 0.046 0.497  7453   281   145  2526   208  1884  7159 0.739    51 469.6 382.4  2.00     7 220.0  1.50  74.8  46.5  1.00  0.45  0.72  0.00  0.00   0.0  0.02  0.00  0.00
 1981 258   288   243  25.6 2.857  82.0 0.316  0.43  16.8 0.447 0.045 0.493  7469   281   144  2531   205  1893  7170 0.739    51 471.8 384.7  2.00     7 220.0  1.50  74.5  41.8  1.00  0.45  0.72  0.00  0.00   0.0  0.00  0.00  0.00
 1981 259   289   244  26.9 2.864  82.1 0.312  0.22   8.7 0.440 0.045 0.485  7479   281   143  2535   202  1902  7177 0.739    51 473.9 387.2  2.00     7 220.0  1.50  74.3  40.9  1.00  0.45  0.72  0.00  0.00   0.0  0.00  0.00  0.00
 1981 260   290   245  26.2 2.870  82.3 0.309  0.46  18.3 0.434 0.044 0.478  7495   282   143  2541   199  1911  7188 0.739    51 475.9 389.6  2.00     7 220.0  1.50  74.0  40.8  1.00  0.45  0.73  0.00  0.00   0.0  0.00  0.00  0.00
 1981 261   291   246  26.4 2.876  82.5 0.305  0.70  25.4 0.428 0.043 0.471  7517   282   142  2546   196  1921  7205 0.739    51 477.9 392.0  2.00     7 220.0  1.50  73.8  44.5  1.00  0.45  0.73  0.00  0.00   0.0  0.00  0.00  0.00
 1981 262   292   247  25.0 2.883  82.6 0.302  0.95  27.4 0.422 0.043 0.465  7540   283   141  2552   193  1930  7222 0.739    51 479.7 394.4  2.00     7 220.0  1.50  73.5  57.0  1.00  0.45  0.73  0.00  0.00   0.0  0.00  0.00  0.00
 1981 263   293   248  25.6 2.890  82.7 0.300  0.72  23.9 0.419 0.043 0.462  7565   283   142  2563   194  1940  7237 0.738    51 481.0 396.8  2.00     7 220.0  1.50  73.3  48.7  1.00  0.45  0.73  0.00  0.00   0.0  0.00  0.00  0.00
 1981 264   294   249  22.5 2.897  82.9 0.300  0.90  34.1 0.419 0.043 0.462  7599   283   141  2569   192  1948  7265 0.739    51 482.3 399.2  2.00     7 220.0  1.50  73.1  45.1  1.00  0.45  0.73  0.00  0.00   0.0  0.16  0.12  0.00
 1981 265   295   250  25.8 2.903  83.0 0.296  0.50  16.9 0.413 0.042 0.455  7613   284   140  2575   189  1957  7273 0.739    52 484.1 401.6  2.00     7 220.0  1.50  72.8  46.9  1.00  0.45  0.73  0.00  0.00   0.0  0.00  0.00  0.00
 1981 266   296   251  26.4 2.909  83.2 0.293  0.72  22.1 0.407 0.041 0.449  7632   284   140  2581   187  1967  7287 0.738    52 486.0 403.9  2.00     7 220.0  1.50  72.6  51.8  1.00  0.46  0.73  0.00  0.00   0.0  0.00  0.00  0.00
 1981 267   297   252  25.4 2.916  83.3 0.290  0.77  24.6 0.402 0.041 0.443  7655   284   139  2588   184  1976  7304 0.738    52 487.7 406.2  2.00     7 220.0  1.50  72.3  50.0  1.00  0.46  0.73  0.00  0.00   0.0  0.00  0.00  0.00
 1981 268   298   253  25.4 2.923  83.4 0.287  0.70  24.6 0.397 0.040 0.438  7678   285   139  2594   182  1986  7321 0.738    52 489.4 408.5  2.00     7 220.0  1.50  72.1  45.5  1.00  0.46  0.73  0.00  0.00   0.0  0.00  0.00  0.00
 1981 269   299   254  26.0 2.929  83.6 0.283  0.54  19.5 0.391 0.040 0.430  7696   285   138  2599   179  1995  7334 0.738    52 491.4 410.9  2.00     7 220.0  1.50  71.9  43.6  1.00  0.46  0.73  0.00  0.00   0.0  0.00  0.00  0.00
 1981 270   300   255  26.5 2.936  83.7 0.279  0.56  19.4 0.385 0.039 0.424  7718   286   139  2607   178  2004  7348 0.738    52 493.3 413.2  2.00     7 220.0  1.50  71.6  44.6  1.00  0.46  0.73  0.00  0.00   0.0  0.00  0.00  0.00
 1981 271   301   256  26.4 2.942  83.9 0.277  0.51  15.8 0.382 0.039 0.421  7732   286   138  2613   175  2014  7356 0.738    52 495.1 415.6  2.00     7 220.0  1.50  71.4  50.0  1.00  0.46  0.73  0.00  0.00   0.0  0.00  0.00  0.00
 1981 272   302   257  26.0 2.948  84.0 0.274  0.56  16.3 0.377 0.038 0.415  7746   286   137  2620   173  2023  7365 0.738    52 496.9 417.9  2.00     7 220.0  1.50  71.2  53.4  1.00  0.46  0.73  0.00  0.00   0.0  0.00  0.00  0.00
 1981 273   303   258  27.1 2.955  84.2 0.270  0.35  11.9 0.370 0.038 0.408  7759   287   137  2625   170  2032  7373 0.737    53 498.9 420.3  2.00     7 220.0  1.50  70.9  45.1  1.00  0.46  0.73  0.00  0.00   0.0  0.00  0.00  0.00
 1981 274   304   259  26.4 2.961  84.4 0.269  0.17   4.9 0.369 0.037 0.406  7766   287   136  2630   169  2038  7376 0.737    53 499.9 422.6  2.00     7 220.0  1.50  70.7  53.2  1.00  0.46  0.73  0.00  0.00   0.0  0.00  0.00  0.00
 1981 275   305   260  25.7 2.967  84.5 0.266  1.31  24.1 0.364 0.037 0.401  7787   287   135  2636   167  2047  7392 0.737    53 501.5 424.9  2.00     7 220.0  1.50  70.5  85.3  1.00  0.46  0.73  0.00  0.00   0.0  0.00  0.00  0.00
 1981 276   306   261  25.6 2.974  84.6 0.263  1.07  20.3 0.359 0.037 0.396  7811   288   135  2645   166  2057  7406 0.737    53 503.1 427.2  2.00     7 220.0  1.50  70.3  82.0  1.00  0.46  0.73  0.00  0.00   0.0  0.00  0.00  0.00
 1981 277   307   262  26.8 2.980  84.8 0.262  0.59  18.3 0.357 0.037 0.393  7834   288   136  2654   165  2066  7421 0.737    53 504.9 429.5  2.00     7 220.0  1.50  70.1  49.0  1.00  0.46  0.73  0.00  0.00   0.0  0.00  0.00  0.00
 1981 278   308   263  27.3 2.987  85.0 0.260  0.43  14.0 0.354 0.036 0.390  7848   288   135  2660   162  2075  7429 0.736    53 506.7 431.8  2.00     7 220.0  1.50  69.8  45.8  1.00  0.46  0.73  0.00  0.00   0.0  0.00  0.00  0.00
 1981 279   309   264  26.8 2.994  85.1 0.257  0.65  18.6 0.349 0.035 0.385  7863   289   135  2666   160  2085  7439 0.736    53 508.4 434.1  2.00     7 220.0  1.50  69.6  52.4  1.00  0.46  0.73  0.00  0.00   0.0  0.00  0.00  0.00
 1981 280   310   265  27.5 3.003  85.3 0.253  0.26   8.5 0.344 0.035 0.379  7876   289   134  2672   158  2094  7446 0.736    53 510.1 436.4  2.00    18 220.0  1.50  69.4  44.6  1.00  0.46  0.73  0.00  0.00   0.0  0.00  0.00  0.00
 1981 281   311   266  28.5 3.009  85.4 0.250  0.29   9.2 0.338 0.034 0.373  7888   289   133  2677   155  2102  7454 0.736    54 511.9 438.7  2.00    18 220.0  1.50  69.2  46.3  1.00  0.46  0.73  0.00  0.00   0.0  0.00  0.00  0.00
 1981 282   312   267  28.1 3.014  85.6 0.246  0.46  13.2 0.333 0.034 0.366  7901   290   133  2683   153  2112  7462 0.736    54 513.7 441.0  2.00    18 220.0  1.50  69.0  50.3  1.00  0.46  0.73  0.00  0.00   0.0  0.00  0.00  0.00
 1981 283   313   268  28.4 3.020  85.8 0.244  0.49  12.7 0.329 0.033 0.362  7911   290   132  2688   149  2121  7467 0.735    54 515.1 443.2  2.00    18 220.0  1.50  68.7  56.3  1.00  0.47  0.73  0.00  0.00   0.0  0.00  0.00  0.00
 1981 284   314   269  27.6 3.025  85.9 0.240  0.57  14.5 0.324 0.033 0.356  7923   291   130  2694   147  2130  7474 0.735    54 516.2 445.5  2.00    18 220.0  1.50  68.5  57.8  1.00  0.47  0.73  0.00  0.00   0.0  0.00  0.00  0.00
 1981 285   315   270  28.2 3.031  86.1 0.235  0.37  10.8 0.315 0.032 0.347  7932   291   129  2697   143  2139  7481 0.735    54 518.0 447.7  2.00    18 220.0  1.50  68.3  49.1  1.00  0.47  0.73  0.00  0.00   0.0  0.00  0.00  0.00
 1981 286   316   271  28.5 3.036  86.3 0.229  0.21   6.1 0.306 0.031 0.337  7935   291   128  2701   139  2148  7482 0.735    54 519.7 449.9  2.00    18 220.0  1.50  68.1  50.1  1.00  0.47  0.73  0.00  0.00   0.0  0.00  0.00  0.00
 1981 287   317   272  28.6 3.042  86.4 0.223  0.21   0.0 0.297 0.031 0.328  7938   291   127  2703   139  2151  7484 0.735    54 521.6 452.0  2.00    18 220.0  1.50  67.9  44.2  1.00  0.47  0.73  0.00  0.00   0.0  0.00  0.00  0.00
 1981 288   318   273  28.1 3.047  86.6 0.225  0.17   4.8 0.299 0.031 0.330  7946   291   126  2708   140  2154  7488 0.734    54 522.8 454.2  2.00    18 220.0  1.50  67.7  47.6  1.00  0.47  0.74  0.00  0.00   0.0  0.00  0.00  0.00
 1981 289   319   274  28.3 3.053  86.8 0.225  0.26   6.6 0.300 0.031 0.331  7955   292   125  2713   140  2158  7493 0.734    54 524.3 456.3  2.00    18 220.0  1.50  67.5  56.3  1.00  0.47  0.74  0.00  0.00   0.0  0.00  0.00  0.00
 1981 290   320   275  29.7 3.058  87.0 0.225  0.26   0.0 0.299 0.031 0.330  7958   292   124  2716   140  2161  7494 0.734    54 526.1 458.5  2.00    18 220.0  1.50  67.3  41.5  1.00  0.47  0.74  0.00  0.00   0.0  0.00  0.00  0.00
 1981 291   321   276  29.3 3.063  87.1 0.224  0.21   6.4 0.299 0.031 0.330  7967   292   123  2720   139  2166  7500 0.734    54 527.9 460.6  2.00    18 220.0  1.50  67.1  45.4  1.00  0.47  0.74  0.00  0.00   0.0  0.00  0.00  0.00
 1981 292   322   277  28.2 3.068  87.3 0.224  0.31   9.0 0.299 0.032 0.330  7980   292   123  2729   143  2169  7504 0.733    55 529.5 462.6  2.00    18 220.0  1.50  67.0  48.8  1.00  0.47  0.74  0.00  0.00   0.0  0.00  0.00  0.00
 1981 293   323   278  27.8 3.073  87.5 0.233  0.21   6.4 0.313 0.032 0.345  7990   292   122  2737   146  2173  7508 0.733    55 529.9 464.7  2.00    18 220.0  1.50  66.8  45.8  1.00  0.47  0.74  0.00  0.00   0.0  0.00  0.00  0.00
 1981 294   324   279  28.7 3.079  87.6 0.236  0.21   0.0 0.317 0.033 0.350  7994   292   120  2741   147  2175  7508 0.733    55 530.7 466.8  2.00    18 220.0  1.50  66.7  39.7  1.00  0.47  0.74  0.00  0.00   0.0  0.00  0.00  0.00
 1981 295   325   280  29.6 3.084  87.8 0.235  0.20   6.2 0.315 0.033 0.348  8003   292   120  2746   147  2179  7514 0.732    55 532.3 468.8  2.00    18 220.0  1.50  66.5  40.6  1.00  0.48  0.74  0.00  0.00   0.0  0.00  0.00  0.00
 1981 296   326   281  28.4 3.089  88.0 0.236  0.39  10.0 0.316 0.033 0.349  8016   293   119  2752   147  2185  7521 0.732    55 533.8 470.9  2.00    18 220.0  1.50  66.3  54.7  1.00  0.48  0.74  0.00  0.00   0.0  0.00  0.00  0.00
 1981 297   327   282  27.6 3.094  88.1 0.236  0.54  15.8 0.317 0.033 0.350  8037   293   119  2760   148  2192  7533 0.732    55 535.3 472.9  2.00    18 220.0  1.50  66.2  48.4  1.00  0.48  0.74  0.00  0.00   0.0  0.00  0.00  0.00
 1981 298   328   283  27.9 3.100  88.3 0.238  0.47  13.2 0.319 0.034 0.353  8054   293   119  2772   152  2196  7539 0.731    55 536.4 474.9  2.00    18 220.0  1.50  66.0  49.9  1.00  0.48  0.74  0.00  0.00   0.0  0.00  0.00  0.00
 1981 299   329   284  27.1 3.106  88.4 0.247  0.27   8.8 0.335 0.034 0.369  8069   293   119  2782   156  2201  7545 0.731    56 536.5 477.0  2.00    18 220.0  1.50  65.9  43.1  1.00  0.48  0.74  0.00  0.00   0.0  0.00  0.00  0.00
 1981 300   330   285  28.7 3.111  88.6 0.247  0.09   2.9 0.334 0.034 0.369  8075   293   118  2786   156  2204  7548 0.730    56 538.1 479.0  2.00    18 220.0  1.50  65.7  39.8  1.00  0.48  0.74  0.00  0.00   0.0  0.00  0.00  0.00
 1981 301   331   286  29.1 3.117  88.8 0.247  0.23   7.0 0.334 0.034 0.369  8085   293   117  2791   155  2209  7554 0.730    56 539.8 481.0  2.00    18 220.0  1.50  65.6  42.2  1.00  0.48  0.74  0.00  0.00   0.0  0.00  0.00  0.00
 1981 302   332   287  28.7 3.122  88.9 0.247  0.45  12.5 0.334 0.034 0.368  8101   293   117  2797   155  2216  7563 0.730    56 541.4 483.0  2.00    18 220.0  1.50  65.4  49.0  1.00  0.48  0.74  0.00  0.00   0.0  0.00  0.00  0.00
 1981 303   333   288  28.1 3.127  89.1 0.247  0.74  19.0 0.334 0.034 0.369  8124   294   118  2806   155  2224  7577 0.730    56 542.9 485.0  2.00    18 220.0  1.50  65.3  53.8  1.00  0.48  0.74  0.00  0.00   0.0  0.00  0.00  0.00
 1981 304   334   289  28.3 3.133  89.2 0.249  0.30   9.8 0.337 0.035 0.371  8141   294   118  2814   157  2230  7585 0.729    56 544.0 487.0  2.00    18 220.0  1.50  65.1  42.5  1.00  0.48  0.74  0.00  0.00   0.0  0.00  0.00  0.00
 1981 305   335   290  29.0 3.138  89.4 0.249  0.19   6.4 0.337 0.035 0.372  8151   294   117  2820   157  2235  7590 0.729    56 545.5 489.0  2.00    18 220.0  1.50  65.0  40.0  1.00  0.48  0.74  0.00  0.00   0.0  0.00  0.00  0.00
 1981 306   336   291  28.5 3.143  89.6 0.250  0.40  10.4 0.338 0.035 0.373  8165   294   117  2827   157  2241  7598 0.729    57 546.9 491.0  2.00    18 220.0  1.50  64.8  51.5  1.00  0.48  0.74  0.00  0.00   0.0  0.00  0.00  0.00
 1981 307   337   292  28.2 3.148  89.7 0.250  0.56  16.6 0.339 0.035 0.374  8187   294   117  2836   158  2249  7610 0.729    57 548.3 492.9  2.00    18 220.0  1.50  64.7  46.2  1.00  0.48  0.74  0.00  0.00   0.0  0.00  0.00  0.00
 1981 308   338   293  28.9 3.154  89.9 0.253  0.24   8.1 0.342 0.035 0.378  8200   295   117  2844   159  2255  7616 0.728    57 549.1 494.9  2.00    18 220.0  1.50  64.5  39.3  1.00  0.48  0.74  0.00  0.00   0.0  0.00  0.00  0.00
 1981 309   339   294  29.3 3.159  90.1 0.256  0.22   7.0 0.348 0.036 0.384  8211   295   116  2852   162  2259  7620 0.728    57 549.5 496.9  2.00    18 220.0  1.50  64.4  40.7  1.00  0.48  0.74  0.00  0.00   0.0  0.00  0.00  0.00
 1981 310   340   295  28.7 3.164  90.2 0.257  0.53  14.4 0.349 0.036 0.385  8230   295   116  2860   162  2266  7630 0.727    57 550.9 498.9  2.00    18 220.0  1.50  64.2  49.6  1.00  0.48  0.74  0.00  0.00   0.0  0.00  0.00  0.00
 1981 311   341   296  25.7 3.169  90.4 0.258  1.42  21.9 0.351 0.036 0.387  8254   295   116  2871   163  2275  7643 0.727    57 552.1 500.8  2.00    18 220.0  1.50  64.1  92.7  1.00  0.48  0.74  0.00  0.00   0.0  0.00  0.00  0.00
 1981 312   342   297  25.8 3.175  90.5 0.259  1.02  16.8 0.353 0.036 0.389  8276   295   117  2881   164  2283  7654 0.727    58 553.3 502.8  2.00    18 220.0  1.50  78.0  99.9  1.00  0.48  0.74  0.00  0.00   0.0  0.00  0.00  0.00
 1981 313   343   298  27.8 3.183  90.7 0.260  0.46  14.9 0.354 0.036 0.390  8304   296   118  2894   165  2295  7669 0.726    58 554.6 504.8  2.00    18 220.0  1.50  74.1  46.7  1.00  0.40  0.70  0.00  0.00   0.0  0.00  0.00  0.00
 1981 314   344   299  28.2 3.189  90.8 0.264  0.53  17.1 0.360 0.037 0.397  8327   296   118  2907   167  2303  7678 0.725    58 555.1 506.8  2.00    18 220.0  1.50  69.8  44.6  1.00  0.42  0.71  0.00  0.00   0.0  0.00  0.00  0.00
 1981 315   345   300  28.5 3.194  91.0 0.267  0.28   9.6 0.366 0.038 0.403  8342   296   117  2916   170  2309  7684 0.725    58 555.6 508.8  2.00    18 220.0  1.50  68.0  40.8  1.00  0.45  0.73  0.00  0.00   0.0  0.00  0.00  0.00
 1981 316   346   301  28.9 3.200  91.2 0.267  0.54  17.1 0.366 0.038 0.404  8363   296   118  2925   170  2317  7696 0.725    59 557.1 510.8  2.00    18 220.0  1.50  66.4  42.9  1.00  0.46  0.73  0.00  0.00   0.0  0.00  0.00  0.00
 1981 317   347   302  28.3 3.205  91.3 0.268  0.44  14.5 0.367 0.038 0.405  8383   296   118  2936   173  2322  7705 0.724    59 558.6 512.8  2.00    18 220.0  1.50  64.9  40.2  1.00  0.47  0.74  0.00  0.00   0.0  0.00  0.00  0.00
 1981 318   348   303  28.5 3.210  91.5 0.272  0.50  17.0 0.374 0.038 0.413  8405   297   118  2945   173  2331  7717 0.724    59 560.1 514.8  2.00    18 220.0  1.50  63.6  38.4  1.00  0.49  0.74  0.00  0.00   0.0  0.00  0.00  0.00
 1981 319   349   304  28.6 3.215  91.6 0.273  0.50  17.2 0.375 0.039 0.414  8427   297   119  2955   174  2340  7729 0.723    59 561.4 516.8  2.00    18 220.0  1.50  62.4  37.4  1.00  0.50  0.75  0.00  0.00   0.0  0.00  0.00  0.00
 1981 320   350   305  28.8 3.220  91.8 0.277  0.31  11.1 0.381 0.039 0.420  8444   297   118  2965   176  2345  7736 0.723    59 561.6 518.8  2.00    18 220.0  1.50  61.4  35.0  1.00  0.51  0.75  0.00  0.00   0.0  0.00  0.00  0.00
 1981 321   351   306  28.8 3.225  91.9 0.277  0.64  18.7 0.382 0.039 0.421  8466   297   119  2974   177  2354  7750 0.723    59 563.0 520.8  2.00    18 220.0  1.50  61.2  43.5  1.00  0.52  0.76  0.00  0.00   0.0  0.00  0.00  0.00
 1981 322   352   307  28.1 3.230  92.1 0.277  0.46  15.4 0.382 0.039 0.421  8488   298   119  2983   177  2362  7762 0.722    60 564.3 522.9  2.00    18 220.0  1.50  61.0  37.9  1.00  0.52  0.76  0.00  0.00   0.0  0.00  0.00  0.00
 1981 323   353   308  28.1 3.235  92.2 0.278  0.42  15.6 0.383 0.039 0.422  8510   298   119  2992   177  2370  7775 0.722    60 565.6 524.9  2.00    18 220.0  1.50  60.7  33.8  1.00  0.52  0.76  0.00  0.00   0.0  0.00  0.00  0.00
 1981 324   354   309  28.5 3.240  92.4 0.278  0.60  19.5 0.383 0.039 0.422  8533   298   120  3001   177  2379  7788 0.722    60 566.9 526.9  2.00    18 220.0  1.50  60.5  38.8  1.00  0.52  0.76  0.00  0.00   0.0  0.00  0.00  0.00
 1981 325   355   310  29.4 3.245  92.5 0.282  0.37  12.1 0.389 0.040 0.429  8551   298   119  3012   180  2385  7796 0.721    60 567.0 528.9  2.00    18 220.0  1.50  60.2  37.8  1.00  0.52  0.76  0.00  0.00   0.0  0.00  0.00  0.00
 1981 326   356   311  28.8 3.249  92.7 0.284  0.47  16.1 0.393 0.040 0.434  8573   298   119  3023   182  2393  7807 0.721    60 567.5 531.0  2.00    18 220.0  1.50  60.0  36.8  1.00  0.52  0.76  0.00  0.00   0.0  0.00  0.00  0.00
 1981 327   357   312  28.4 3.254  92.8 0.285  0.62  19.8 0.394 0.040 0.434  8597   298   120  3032   182  2402  7821 0.721    61 568.7 533.0  2.00    18 220.0  1.50  59.7  39.6  1.00  0.53  0.76  0.00  0.00   0.0  0.00  0.00  0.00
 1981 328   358   313  27.9 3.259  92.9 0.285  0.72  22.3 0.395 0.040 0.435  8625   299   121  3043   182  2411  7837 0.720    61 569.9 535.0  2.00    18 220.0  1.50  59.5  40.9  1.00  0.53  0.76  0.00  0.00   0.0  0.00  0.00  0.00
 1981 329   359   314  28.5 3.264  93.1 0.285  0.48  18.7 0.395 0.040 0.436  8652   299   121  3054   183  2421  7853 0.720    61 571.2 537.1  2.00    18 220.0  1.50  59.3  32.2  1.00  0.53  0.76  0.00  0.00   0.0  0.00  0.00  0.00
 1981 330   360   315  28.7 3.269  93.2 0.286  0.53  18.2 0.396 0.041 0.437  8674   299   122  3063   183  2429  7866 0.720    61 572.3 539.2  2.00    18 220.0  1.50  59.0  35.9  1.00  0.53  0.77  0.00  0.00   0.0  0.00  0.00  0.00
 1981 331   361   316  29.5 3.273  93.4 0.290  0.38  14.1 0.403 0.041 0.444  8695   299   121  3075   186  2436  7875 0.719    61 572.3 541.2  2.00    18 220.0  1.50  58.8  32.3  1.00  0.53  0.77  0.00  0.00   0.0  0.00  0.00  0.00
 1981 332   362   317  29.5 3.278  93.5 0.291  0.42  14.3 0.404 0.041 0.445  8714   300   121  3083   187  2444  7885 0.719    62 573.3 543.3  2.00    18 220.0  1.50  58.6  35.7  1.00  0.53  0.77  0.00  0.00   0.0  0.00  0.00  0.00
 1981 333   363   318  29.3 3.282  93.7 0.291  0.40  14.5 0.404 0.041 0.445  8734   300   121  3092   187  2451  7897 0.719    62 574.6 545.3  2.00    18 220.0  1.50  58.3  33.7  1.00  0.54  0.77  0.00  0.00   0.0  0.00  0.00  0.00
 1981 334   364   319  29.0 3.287  93.8 0.291  0.22   7.5 0.404 0.041 0.446  8745   300   121  3097   187  2457  7903 0.718    62 575.9 547.4  2.00    18 220.0  1.50  58.1  35.2  1.00  0.54  0.77  0.00  0.00   0.0  0.00  0.00  0.00
 1981 335   365   320  31.8 3.291  94.0 0.291  0.22   0.0 0.404 0.041 0.445  8749   300   120  3100   186  2460  7905 0.718    62 577.2 549.5  2.00    18 220.0  1.50  57.9  26.5  1.00  0.54  0.77  0.00  0.00   0.0  0.00  0.00  0.00
 1981 336   366   321  29.0 3.295  94.1 0.294  0.55  19.8 0.409 0.042 0.451  8775   300   120  3112   189  2468  7919 0.718    62 577.5 551.5  2.00    18 220.0  1.50  57.6  33.3  1.00  0.54  0.77  0.00  0.00   0.0  0.00  0.00  0.00
 1981 337   367   322  28.7 3.299  94.2 0.295  0.25  10.1 0.411 0.042 0.453  8792   300   120  3121   190  2475  7927 0.718    62 578.4 553.5  2.00    18 220.0  1.50  57.4  29.7  1.00  0.54  0.77  0.00  0.00   0.0  0.00  0.00  0.00
 1981 338   368   323  29.1 3.304  94.4 0.295  0.34  13.1 0.412 0.042 0.454  8810   300   120  3129   190  2482  7937 0.717    63 579.5 555.6  2.00    18 220.0  1.50  57.2  31.0  1.00  0.54  0.77  0.00  0.00   0.0  0.00  0.00  0.00
 1981 339   369   324  28.6 3.308  94.5 0.296  0.52  18.5 0.413 0.042 0.455  8833   301   120  3138   190  2491  7951 0.717    63 580.6 557.6  2.00    18 220.0  1.50  57.0  33.6  1.00  0.54  0.77  0.00  0.00   0.0  0.00  0.00  0.00
 1981 340   370   325  26.9 3.313  94.6 0.297  0.61  21.0 0.414 0.042 0.456  8860   301   121  3149   191  2501  7966 0.717    63 581.5 559.7  2.00    18 220.0  1.50  56.7  36.0  1.00  0.55  0.77  0.00  0.00   0.0  0.00  0.00  0.00
 1981 341   371   326  27.7 3.318  94.8 0.299  0.29  11.0 0.418 0.043 0.460  8877   301   120  3159   193  2507  7974 0.716    63 582.0 561.7  2.00    18 220.0  1.50  56.5  31.9  1.00  0.55  0.77  0.00  0.00   0.0  0.00  0.00  0.00
 1981 342   372   327  27.8 3.323  94.9 0.303  0.26  10.6 0.424 0.043 0.467  8894   301   120  3169   195  2513  7981 0.716    63 582.0 563.8  2.00    18 220.0  1.50  56.3  29.3  1.00  0.55  0.77  0.00  0.00   0.0  0.00  0.00  0.00
 1981 343   373   328  29.5 3.328  95.0 0.306  0.33  12.5 0.430 0.044 0.474  8912   301   120  3179   198  2519  7989 0.715    64 582.0 565.8  2.00    18 220.0  1.50  56.1  30.7  1.00  0.55  0.77  0.00  0.00   0.0  0.00  0.00  0.00
 1981 344   374   329  28.9 3.332  95.2 0.310  0.29  11.1 0.436 0.044 0.480  8924   301   119  3190   198  2529  7991 0.715    64 582.0 567.8  2.00    18 220.0  1.50  55.9  30.5  1.00  0.55  0.77  0.00  0.00   0.0  0.00  0.00  0.00
 1981 345   375   330  28.0 3.336  95.3 0.310  0.47  16.8 0.436 0.045 0.481  8947   302   119  3202   201  2537  8002 0.714    64 582.0 569.8  2.00    18 220.0  1.50  55.8  33.4  1.00  0.55  0.77  0.00  0.00   0.0  0.00  0.00  0.00
 1981 346   376   331  27.5 3.341  95.4 0.313  0.44  18.1 0.442 0.045 0.487  8973   302   119  3216   204  2545  8014 0.714    64 582.0 571.9  2.00    18 220.0  1.50  55.7  29.2  1.00  0.55  0.77  0.00  0.00   0.0  0.00  0.00  0.00
 1981 347   377   332  28.3 3.346  95.6 0.315  0.22   9.4 0.445 0.045 0.491  8988   302   119  3224   205  2551  8021 0.713    64 582.7 573.9  2.00    18 220.0  1.50  55.6  27.8  1.00  0.55  0.77  0.00  0.00   0.0  0.00  0.00  0.00
 1981 348   378   333  29.2 3.351  95.7 0.312  0.22   8.0 0.439 0.045 0.484  8999   302   118  3226   202  2558  8030 0.713    65 585.1 575.9  2.00    18 220.0  1.50  55.5  29.8  1.00  0.55  0.77  0.00  0.00   0.0  0.00  0.00  0.00
 1981 349   379   334  29.2 3.355  95.8 0.308  0.51  15.3 0.433 0.044 0.477  9018   302   119  3231   200  2567  8044 0.713    65 587.6 577.9  2.00    18 220.0  1.50  55.4  38.2  1.00  0.55  0.77  0.00  0.00   0.0  0.00  0.00  0.00
 1981 350   380   335  28.7 3.359  96.0 0.305  0.36  14.0 0.428 0.044 0.471  9039   302   119  3237   197  2576  8058 0.713    65 589.9 579.9  2.00    18 220.0  1.50  55.2  29.7  1.00  0.55  0.77  0.00  0.00   0.0  0.00  0.00  0.00
 1981 351   381   336  28.2 3.364  96.1 0.302  0.31  12.1 0.424 0.043 0.467  9055   303   119  3243   195  2584  8069 0.713    65 592.0 581.9  2.00    18 220.0  1.50  55.1  29.6  1.00  0.54  0.77  0.00  0.00   0.0  0.00  0.00  0.00
 1981 352   382   337  28.1 3.369  96.2 0.304  0.47  16.1 0.427 0.044 0.470  9077   303   119  3253   197  2592  8080 0.713    65 592.6 584.0  2.00    18 220.0  1.50  55.0  34.3  1.00  0.54  0.77  0.00  0.00   0.0  0.00  0.00  0.00
 1981 353   383   338  28.4 3.373  96.4 0.300  0.56  15.8 0.420 0.043 0.463  9095   303   120  3258   194  2601  8094 0.713    65 595.2 586.0  2.00    18 220.0  1.50  54.9  41.5  1.00  0.54  0.77  0.00  0.00   0.0  0.00  0.00  0.00
 1981 354   384   339  27.1 3.378  96.5 0.297  0.91  24.4 0.414 0.042 0.457  9121   303   121  3266   191  2612  8111 0.713    65 597.6 588.0  2.00    18 220.0  1.50  54.8  44.3  1.00  0.54  0.77  0.00  0.00   0.0  0.00  0.00  0.00
 1981 355   385   340  27.7 3.383  96.6 0.293  0.82  18.2 0.408 0.042 0.450  9142   303   121  3271   188  2622  8125 0.713    65 600.0 590.1  2.00    18 220.0  1.50  54.7  52.7  1.00  0.54  0.77  0.00  0.00   0.0  0.00  0.00  0.00
 1981 356   386   341  27.5 3.388  96.7 0.289  0.74  19.6 0.402 0.041 0.443  9167   304   122  3279   186  2633  8142 0.713    66 602.5 592.2  2.00    18 220.0  1.50  64.6  52.6  1.00  0.54  0.77  0.00  0.00   0.0  0.00  0.00  0.00
[...]
 1982 230   625   280  26.1 2.314  61.4 0.070  0.67   4.3 .0855 0.009 .0943  2113   270    52  1401    40  1044  3035 0.684    28 205.4 198.4  2.00     7 220.0  1.50  46.2  99.9  1.00  0.66  0.83  0.00  0.00   0.0  0.00  0.00  0.00
 1982 231   626   281  26.5 2.318  61.5 0.071  0.28   2.2 .0872 0.009 .0962  2118   270    52  1404    40  1046  3038 0.684    28 205.4 199.3  2.00     7 220.0  1.50  46.1  99.9  1.00  0.66  0.83  0.00  0.00   0.0  0.00  0.00  0.00
 1982 232   627   282  26.6 2.322  61.6 0.072  0.44   3.6 .0881 0.009 .0972  2124   270    52  1407    41  1048  3041 0.684    28 205.6 200.2  2.00     7 220.0  1.50  46.0  99.9  1.00  0.66  0.83  0.00  0.00   0.0  0.00  0.00  0.00
 1982 233   628   283  26.4 2.326  61.7 0.072  0.77   6.3 .0885 0.009 .0974  2130   270    51  1410    40  1051  3044 0.683    28 205.8 201.1  2.00     7 220.0  1.50  45.9  99.9  1.00  0.66  0.83  0.00  0.00   0.0  0.00  0.00  0.00
 1982 234   629   284  26.4 2.330  61.8 0.071  0.61   5.1 .0872 0.009 .0959  2134   271    51  1413    40  1055  3046 0.683    28 206.1 201.9  2.00     7 220.0  1.50  45.8  99.9  1.00  0.66  0.83  0.00  0.00   0.0  0.00  0.00  0.00
 1982 235   630   285  26.1 2.334  61.9 0.070  0.69   5.8 .0859 0.009 .0945  2139   271    50  1416    39  1059  3048 0.683    28 206.4 202.8  2.00     7 220.0  1.50  45.7  99.9  1.00  0.66  0.83  0.00  0.00   0.0  0.00  0.00  0.00
 1982 236   631   286  25.8 2.338  61.9 0.069  0.64   5.3 .0846 0.009 .0931  2144   271    50  1419    38  1062  3050 0.682    28 206.6 203.6  2.00     7 220.0  1.50  45.6  99.9  1.00  0.66  0.83  0.00  0.00   0.0  0.00  0.00  0.00
 1982 237   632   287  26.2 2.342  62.0 0.069  0.82   6.1 .0842 0.008 .0927  2149   271    49  1423    38  1066  3052 0.682    28 206.7 204.5  2.00     7 220.0  1.50  45.5  99.9  1.00  0.67  0.83  0.00  0.00   0.0  0.00  0.00  0.00
 1982 238   633   288  24.8 2.346  62.1 0.069  0.85   7.0 .0842 0.009 .0929  2159   272    49  1428    39  1069  3058 0.682    29 206.7 205.3  2.00     7 220.0  1.50  45.4  99.9  1.00  0.67  0.83  0.00  0.00   0.0  0.01  0.00  0.00
 1982 239   634   289  25.8 2.350  62.2 0.070  0.90   6.3 .0859 0.009 .0947  2168   272    49  1432    40  1072  3062 0.681    29 206.7 206.2  2.00     7 220.0  1.50  45.3  99.9  1.00  0.67  0.83  0.00  0.00   0.0  0.00  0.00  0.00
 1982 240   635   290  25.8 2.354  62.2 0.071  0.88   6.5 .0872 0.009 .0962  2177   272    49  1436    40  1075  3068 0.681    29 206.8 207.0  2.00     7 220.0  1.50  45.2  99.9  1.00  0.67  0.83  0.00  0.00   0.0  0.00  0.00  0.00
 1982 241   636   291  25.8 2.358  62.3 0.072  0.82   6.5 .0878 0.009 .0968  2187   272    49  1440    41  1078  3073 0.681    29 207.0 207.8  2.00     7 220.0  1.50  45.1  99.9  1.00  0.67  0.83  0.00  0.00   0.0  0.00  0.00  0.00
 1982 242   637   292  25.5 2.362  62.4 0.072  0.98   7.0 .0883 0.009 .0974  2196   272    50  1444    41  1081  3079 0.681    29 207.2 208.7  2.00     7 220.0  1.50  45.0  99.9  1.00  0.67  0.83  0.00  0.00   0.0  0.00  0.00  0.00
 1982 243   638   293  26.1 2.366  62.5 0.073  0.75   5.6 .0888 0.009 .0979  2204   272    50  1447    41  1084  3084 0.681    29 207.5 209.5  2.00     7 220.0  1.50  44.9  99.9  1.00  0.67  0.83  0.00  0.00   0.0  0.00  0.00  0.00
 1982 244   639   294  27.3 2.370  62.6 0.073  0.68   5.4 .0892 0.009 .0983  2213   273    50  1451    41  1087  3089 0.680    29 207.7 210.3  2.00     7 220.0  1.50  44.8  99.9  1.00  0.67  0.83  0.00  0.00   0.0  0.00  0.00  0.00
 1982 245   640   295  28.2 2.374  62.7 0.074  0.35   3.0 .0900 0.009 0.099  2218   273    49  1453    42  1089  3092 0.680    29 207.9 211.2  2.00     7 220.0  1.50  44.7  99.9  1.00  0.67  0.83  0.00  0.00   0.0  0.00  0.00  0.00
 1982 246   641   296  25.8 2.377  62.7 0.075  0.75   5.9 .0917 0.009 0.101  2224   273    49  1457    42  1093  3093 0.680    29 207.9 212.0  2.00     7 220.0  1.50  44.6  99.9  1.00  0.67  0.84  0.00  0.00   0.0  0.00  0.00  0.00
 1982 247   642   297  25.9 2.381  62.8 0.075  0.64   5.1 .0917 0.009 0.101  2228   273    48  1461    42  1097  3095 0.679    29 207.9 212.8  2.00     7 220.0  1.50  44.5  99.9  1.00  0.67  0.84  0.00  0.00   0.0  0.00  0.00  0.00
 1982 248   643   298  25.5 2.385  62.9 0.075  0.86   5.8 .0917 0.009 0.101  2233   273    48  1465    42  1100  3096 0.679    29 207.9 213.7  2.00     7 220.0  1.50  44.5  99.9  1.00  0.67  0.84  0.00  0.00   0.0  0.00  0.00  0.00
 1982 249   644   299  26.4 2.389  63.0 0.075  0.40   3.6 .0917 0.009 0.101  2237   274    48  1469    42  1104  3097 0.678    29 207.9 214.5  2.00     7 220.0  1.50  44.4  99.9  1.00  0.67  0.84  0.00  0.00   0.0  0.00  0.00  0.00
 1982 250   645   300  26.0 2.393  63.0 0.075  0.88   6.5 .0917 0.009 0.101  2243   274    47  1473    42  1108  3099 0.678    29 207.9 215.3  2.00     7 220.0  1.50  44.3  99.9  1.00  0.67  0.84  0.00  0.00   0.0  0.00  0.00  0.00
 1982 251   646   301  25.8 2.397  63.1 0.074  0.99   7.0 .0904 0.009 0.100  2253   274    47  1477    42  1111  3105 0.678    30 208.1 216.1  2.00     7 220.0  1.50  44.2  99.9  1.00  0.67  0.84  0.00  0.00   0.0  0.00  0.00  0.00
 1982 252   647   302  24.0 2.401  63.2 0.073  1.12   7.4 .0893 0.009 .0985  2263   274    47  1480    41  1115  3111 0.678    30 208.7 216.9  2.00     7 220.0  1.50  44.1  99.9  1.00  0.67  0.84  0.00  0.00   0.0  0.07  0.00  0.00
 1982 253   648   303  25.5 2.405  63.3 0.072  0.89   5.0 .0878 0.009 .0968  2269   274    47  1482    41  1118  3116 0.678    30 209.3 217.6  2.00     7 220.0  1.50  44.0  99.9  1.00  0.67  0.84  0.00  0.00   0.0  0.00  0.00  0.00
 1982 254   649   304  25.0 2.409  63.3 0.071  1.01   7.4 .0865 0.009 .0953  2280   275    48  1486    40  1121  3122 0.678    30 209.9 218.4  2.00     7 220.0  1.50  43.9  99.9  1.00  0.68  0.84  0.00  0.00   0.0  0.00  0.00  0.00
 1982 255   650   305  25.6 2.413  63.4 0.070  0.84   5.6 .0850 0.009 .0937  2287   275    48  1488    39  1125  3128 0.678    30 210.5 219.1  2.00     7 220.0  1.50  43.8  99.9  1.00  0.68  0.84  0.00  0.00   0.0  0.00  0.00  0.00
 1982 256   651   306  27.2 2.417  63.5 0.069  0.36   2.9 .0837 0.009 .0923  2293   275    48  1490    39  1127  3132 0.678    30 211.1 219.9  2.00     7 220.0  1.50  43.7  99.9  1.00  0.68  0.84  0.00  0.00   0.0  0.00  0.00  0.00
 1982 257   652   307  26.9 2.421  63.6 0.070  0.68   5.0 .0853 0.009 .0941  2301   275    48  1493    39  1130  3136 0.677    30 211.1 220.7  2.00     7 220.0  1.50  43.6  99.9  1.00  0.68  0.84  0.00  0.00   0.0  0.00  0.00  0.00
 1982 258   653   308  26.7 2.424  63.6 0.071  0.76   5.2 .0869 0.009 .0958  2309   275    48  1497    40  1132  3140 0.677    30 211.1 221.5  2.00     7 220.0  1.50  43.5  99.9  1.00  0.68  0.84  0.00  0.00   0.0  0.00  0.00  0.00
 1982 259   654   309  26.2 2.428  63.7 0.072  0.84   6.6 .0885 0.009 .0974  2315   275    47  1501    40  1136  3143 0.677    30 211.1 222.3  2.00     7 220.0  1.50  43.4  99.9  1.00  0.68  0.84  0.00  0.00   0.0  0.00  0.00  0.00
 1982 260   655   310  27.0 2.432  63.8 0.072  0.82   5.4 .0885 0.009 .0974  2320   276    47  1505    40  1140  3144 0.676    30 211.1 223.1  2.00     7 220.0  1.50  43.3  99.9  1.00  0.68  0.84  0.00  0.00   0.0  0.00  0.00  0.00
 1982 261   656   311  27.1 2.435  63.9 0.072  0.68   4.8 .0885 0.009 .0974  2324   276    46  1509    40  1143  3145 0.676    30 211.1 223.9  2.00     7 220.0  1.50  43.2  99.9  1.00  0.68  0.84  0.00  0.00   0.0  0.00  0.00  0.00
 1982 262   657   312  27.8 2.439  64.0 0.070  0.45   3.9 .0848 0.009 .0933  2328   276    46  1511    39  1147  3147 0.676    30 211.9 224.7  2.00     7 220.0  1.50  43.1  99.9  1.00  0.68  0.84  0.00  0.00   0.0  0.00  0.00  0.00
 1982 263   658   313  28.5 2.442  64.1 0.066  0.15   1.2 .0806 0.008 .0887  2329   276    46  1512    37  1151  3148 0.676    30 212.7 225.5  2.00     7 220.0  1.50  43.1  99.9  1.00  0.68  0.84  0.00  0.00   0.0  0.00  0.00  0.00
 1982 264   659   314  27.0 2.446  64.1 0.063  0.97   5.3 .0769 0.008 .0848  2336   276    46  1514    36  1154  3153 0.676    30 213.5 226.3  2.00     7 220.0  1.50  43.0  99.9  1.00  0.68  0.84  0.00  0.00   0.0  0.00  0.00  0.00
 1982 265   660   315  27.0 2.449  64.2 0.061  0.81   5.4 .0746 0.008 .0823  2345   277    46  1516    35  1157  3159 0.676    30 214.2 227.1  2.00     7 220.0  1.50  42.9  99.9  1.00  0.68  0.84  0.00  0.00   0.0  0.00  0.00  0.00
 1982 266   661   316  26.0 2.453  64.3 0.061  1.01   6.0 .0740 0.008 .0816  2353   277    46  1519    34  1161  3164 0.676    30 214.7 227.8  2.00     7 220.0  1.50  42.8  99.9  1.00  0.68  0.84  0.00  0.00   0.0  0.00  0.00  0.00
 1982 267   662   317  25.5 2.457  64.4 0.062  1.03   5.8 .0755 0.008 .0833  2362   277    46  1523    35  1163  3169 0.675    30 214.7 228.6  2.00     7 220.0  1.50  42.7  99.9  1.00  0.68  0.84  0.00  0.00   0.0  0.00  0.00  0.00
 1982 268   663   318  25.9 2.461  64.4 0.063  0.79   5.0 .0771 0.008 .0850  2370   277    46  1527    36  1166  3173 0.675    31 214.7 229.4  2.00     7 220.0  1.50  42.6  99.9  1.00  0.68  0.84  0.00  0.00   0.0  0.00  0.00  0.00
 1982 269   664   319  26.5 2.464  64.5 0.065  0.66   5.2 .0786 0.008 .0867  2379   277    46  1531    36  1169  3178 0.675    31 214.7 230.2  2.00     7 220.0  1.50  42.5  99.9  1.00  0.68  0.84  0.00  0.00   0.0  0.00  0.00  0.00
 1982 270   665   320  27.0 2.468  64.6 0.066  0.59   4.3 .0801 0.008 .0883  2386   277    46  1535    37  1171  3182 0.675    31 214.7 230.9  2.00     7 220.0  1.50  42.4  99.9  1.00  0.68  0.84  0.00  0.00   0.0  0.00  0.00  0.00
 1982 271   666   321  27.6 2.472  64.7 0.067  0.28   2.3 .0816 0.008 .0898  2390   278    45  1539    37  1175  3182 0.674    31 214.7 231.7  2.00     7 220.0  1.50  42.3  99.9  1.00  0.68  0.84  0.00  0.00   0.0  0.00  0.00  0.00
 1982 272   667   322  28.8 2.475  64.8 0.067  0.54   3.7 .0810 0.008 .0891  2394   278    45  1542    37  1179  3183 0.674    31 214.8 232.5  2.00     7 220.0  1.50  42.2  99.9  1.00  0.68  0.84  0.00  0.00   0.0  0.00  0.00  0.00
 1982 273   668   323  25.8 2.478  64.8 0.064  1.07   4.5 .0776 0.008 .0855  2397   278    45  1544    35  1182  3184 0.673    31 215.5 233.3  2.00     7 220.0  1.50  42.1  99.9  1.00  0.69  0.84  0.00  0.00   0.0  0.00  0.00  0.00
 1982 274   669   324  26.7 2.482  64.9 0.061  0.76   5.6 .0741 0.007 .0815  2403   278    44  1545    34  1186  3189 0.674    31 216.2 234.0  2.00     7 220.0  1.50  42.1  99.9  1.00  0.69  0.84  0.00  0.00   0.0  0.00  0.00  0.00
 1982 275   670   325  23.8 2.486  65.0 0.059  1.20   6.5 .0712 0.007 .0784  2408   278    44  1547    32  1190  3193 0.674    31 216.8 234.8  2.00     7 220.0  1.50  42.0  99.9  1.00  0.69  0.84  0.00  0.00   0.0  0.08  0.02  0.00
 1982 276   671   326  25.9 2.490  65.0 0.056  0.72   5.2 .0678 0.007 .0747  2413   278    44  1549    31  1193  3197 0.674    31 217.5 235.5  2.00     7 220.0  1.50  41.9  99.9  1.00  0.69  0.84  0.00  0.00   0.0  0.00  0.00  0.00
 1982 277   672   327  27.9 2.493  65.1 0.053  0.20   1.4 .0646 0.007 .0713  2417   279    43  1550    30  1195  3200 0.674    31 218.1 236.3  2.00     7 220.0  1.50  41.8  99.9  1.00  0.69  0.84  0.00  0.00   0.0  0.00  0.00  0.00
 1982 278   673   328  26.7 2.497  65.2 0.055  0.51   2.7 .0661 0.007 .0729  2422   279    43  1553    31  1197  3202 0.673    31 218.1 237.0  2.00     7 220.0  1.50  41.7  99.9  1.00  0.69  0.84  0.00  0.00   0.0  0.00  0.00  0.00
 1982 279   674   329  28.4 2.500  65.3 0.056  0.45   2.8 .0676 0.007 .0745  2428   279    43  1556    31  1199  3205 0.673    31 218.1 237.7  2.00     7 220.0  1.50  41.6  99.9  1.00  0.69  0.84  0.00  0.00   0.0  0.00  0.00  0.00
 1982 280   675   330  27.1 2.503  65.4 0.057  0.51   3.3 .0690 0.007 .0761  2434   279    43  1559    32  1201  3208 0.673    31 218.1 238.5  2.00     7 220.0  1.50  41.5  99.9  1.00  0.69  0.85  0.00  0.00   0.0  0.00  0.00  0.00
 1982 281   676   331  27.9 2.507  65.4 0.058  0.42   2.7 .0705 0.007 .0777  2440   279    43  1562    33  1203  3211 0.673    31 218.1 239.2  2.00     7 220.0  1.50  41.4  99.9  1.00  0.69  0.85  0.00  0.00   0.0  0.00  0.00  0.00
 1982 282   677   332  27.1 2.510  65.5 0.059  0.40   3.0 .0719 0.007 .0793  2446   279    42  1565    33  1205  3214 0.672    31 218.1 239.9  2.00     7 220.0  1.50  41.3  99.9  1.00  0.69  0.85  0.00  0.00   0.0  0.00  0.00  0.00
 1982 283   678   333  27.9 2.514  65.6 0.060  0.21   1.6 .0731 0.008 .0806  2450   279    42  1568    34  1207  3216 0.672    31 218.2 240.6  2.00     7 220.0  1.50  41.2  99.9  1.00  0.69  0.85  0.00  0.00   0.0  0.00  0.00  0.00
 1982 284   679   334  28.0 2.517  65.7 0.059  0.15   1.2 .0712 0.007 .0784  2452   279    42  1570    32  1211  3217 0.672    31 218.9 241.4  2.00     7 220.0  1.50  41.2  99.9  1.00  0.69  0.85  0.00  0.00   0.0  0.00  0.00  0.00
 1982 285   680   335  29.0 2.520  65.8 0.056  0.06   0.5 .0677 0.007 .0745  2454   279    42  1571    31  1214  3218 0.672    31 219.6 242.1  2.00     7 220.0  1.50  41.1  99.9  1.00  0.69  0.85  0.00  0.00   0.0  0.00  0.00  0.00
 1982 286   681   336  28.3 2.523  65.9 0.053  0.32   2.3 .0643 0.006 .0708  2456   280    41  1573    29  1218  3218 0.672    31 220.3 242.8  2.00     7 220.0  1.50  41.0  99.9  1.00  0.69  0.85  0.00  0.00   0.0  0.00  0.00  0.00
 1982 287   682   337  29.4 2.526  65.9 0.050  0.31   1.9 .0607 0.006 .0669  2458   280    41  1574    28  1222  3219 0.672    31 221.0 243.5  2.00     7 220.0  1.50  40.9  99.9  1.00  0.69  0.85  0.00  0.00   0.0  0.00  0.00  0.00
 1982 288   683   338  27.5 2.529  66.0 0.050  0.62   3.3 .0604 0.006 .0665  2461   280    41  1578    27  1225  3219 0.671    32 221.1 244.2  2.00     7 220.0  1.50  40.8  99.9  1.00  0.69  0.85  0.00  0.00   0.0  0.00  0.00  0.00
 1982 289   684   339  28.5 2.532  66.1 0.050  0.31   2.0 .0604 0.006 .0666  2467   280    40  1581    28  1227  3222 0.671    32 221.1 244.9  2.00     7 220.0  1.50  40.7  99.9  1.00  0.70  0.85  0.00  0.00   0.0  0.00  0.00  0.00
 1982 290   685   340  26.8 2.535  66.2 0.051  0.58   3.6 .0618 0.006 .0681  2473   280    40  1584    29  1229  3225 0.671    32 221.1 245.5  2.00     7 220.0  1.50  40.6  99.9  1.00  0.70  0.85  0.00  0.00   0.0  0.00  0.00  0.00
 1982 291   686   341  27.5 2.539  66.3 0.052  0.13   0.9 .0632 0.007 .0697  2477   280    40  1587    29  1231  3227 0.670    32 221.1 246.2  2.00     7 220.0  1.50  40.5  99.9  1.00  0.70  0.85  0.00  0.00   0.0  0.00  0.00  0.00
 1982 292   687   342  27.8 2.542  66.3 0.053  0.01   0.1 .0646 0.007 .0712  2480   280    40  1589    30  1232  3228 0.670    32 221.1 246.9  2.00     7 220.0  1.50  40.5  99.9  1.00  0.70  0.85  0.00  0.00   0.0  0.00  0.00  0.00
 1982 293   688   343  28.0 2.545  66.4 0.054  0.24   1.6 .0651 0.007 .0718  2485   280    39  1591    30  1234  3230 0.670    32 221.3 247.6  2.00     7 220.0  1.50  40.4  99.9  1.00  0.70  0.85  0.00  0.00   0.0  0.00  0.00  0.00
 1982 294   689   344  26.9 2.549  66.5 0.053  0.54   3.8 .0636 0.007 .0701  2491   281    39  1593    30  1236  3235 0.670    32 221.8 248.3  2.00     7 220.0  1.50  40.3  99.9  1.00  0.70  0.85  0.00  0.00   0.0  0.00  0.00  0.00
 1982 295   690   345  27.4 2.552  66.6 0.051  0.49   3.0 .0620 0.006 .0684  2497   281    39  1594    29  1239  3239 0.670    32 222.5 248.9  2.00     7 220.0  1.50  40.2  99.9  1.00  0.70  0.85  0.00  0.00   0.0  0.00  0.00  0.00
 1982 296   691   346  28.2 2.555  66.6 0.050  0.37   2.2 .0602 0.006 .0663  2499   281    39  1596    27  1242  3239 0.670    32 223.1 249.6  2.00     7 220.0  1.50  40.1  99.9  1.00  0.70  0.85  0.00  0.00   0.0  0.00  0.00  0.00
 1982 297   692   347  28.5 2.558  66.7 0.047  0.26   1.7 .0570 0.006 .0627  2501   281    39  1598    26  1246  3240 0.670    32 223.8 250.3  2.00     7 220.0  1.50  40.0  99.9  1.00  0.70  0.85  0.00  0.00   0.0  0.00  0.00  0.00
 1982 298   693   348  28.4 2.562  66.8 0.047  0.21   1.4 .0565 0.006 .0622  2504   281    39  1601    26  1250  3240 0.669    32 223.8 250.9  2.00     7 220.0  1.50  39.9  99.9  1.00  0.70  0.85  0.00  0.00   0.0  0.00  0.00  0.00
 1982 299   694   349  29.1 2.565  66.9 0.047  0.22   1.3 .0565 0.006 .0622  2509   281    38  1605    26  1254  3241 0.669    32 223.8 251.6  2.00     7 220.0  1.50  39.9  99.9  1.00  0.70  0.85  0.00  0.00   0.0  0.00  0.00  0.00
 1982 300   695   350  27.8 2.567  67.0 0.047  0.81   4.2 .0565 0.006 .0622  2513   281    38  1609    26  1257  3241 0.668    32 223.8 252.2  2.00     7 220.0  1.50  39.8  99.9  1.00  0.70  0.85  0.00  0.00   0.0  0.00  0.00  0.00
 1982 301   696   351  27.3 2.571  67.0 0.047  0.96   3.8 .0565 0.006 .0622  2517   282    38  1613    26  1261  3242 0.668    32 223.8 252.9  2.00     7 220.0  1.50  39.7  99.9  1.00  0.70  0.85  0.00  0.00   0.0  0.00  0.00  0.00
 1982 302   697   352  28.1 2.574  67.1 0.047  0.51   2.3 .0565 0.006 .0624  2523   282    38  1616    26  1263  3245 0.668    32 223.8 253.5  2.00     7 220.0  1.50  39.6  99.9  1.00  0.70  0.85  0.00  0.00   0.0  0.00  0.00  0.00
 1982 303   698   353  28.3 2.577  67.2 0.048  0.46   2.3 .0579 0.006 .0639  2528   282    38  1619    27  1265  3247 0.667    32 223.8 254.2  2.00     7 220.0  1.50  39.5  99.9  1.00  0.70  0.85  0.00  0.00   0.0  0.00  0.00  0.00
 1982 304   699   354  27.5 2.580  67.3 0.049  0.63   2.4 .0587 0.006 .0648  2533   282    37  1622    27  1267  3250 0.667    32 224.0 254.8  2.00     7 220.0  1.50  39.4  99.9  1.00  0.70  0.85  0.00  0.00   0.0  0.00  0.00  0.00
 1982 305   700   355  26.9 2.583  67.4 0.048  0.62   3.2 .0573 0.006 .0632  2540   282    38  1624    27  1269  3254 0.667    32 224.5 255.4  2.00     7 220.0  1.50  39.3  99.9  1.00  0.70  0.85  0.00  0.00   0.0  0.00  0.00  0.00
 1982 306   701   356  27.1 2.587  67.4 0.046  0.47   2.2 .0558 0.006 .0615  2544   282    38  1625    26  1271  3258 0.667    32 225.1 256.1  2.00     7 220.0  1.50  39.3  99.9  1.00  0.70  0.85  0.00  0.00   0.0  0.00  0.00  0.00
 1982 307   702   357  27.2 2.590  67.5 0.045  0.54   3.3 .0543 0.006 .0599  2551   282    38  1627    25  1274  3262 0.667    33 225.7 256.7  2.00     7 220.0  1.50  39.2  99.9  1.00  0.70  0.85  0.00  0.00   0.0  0.00  0.00  0.00
 1982 308   703   358  27.4 2.593  67.6 0.044  0.44   2.6 .0527 0.005 .0582  2556   282    38  1628    25  1277  3266 0.667    33 226.3 257.4  2.00     7 220.0  1.50  39.1  99.9  1.00  0.70  0.85  0.00  0.00   0.0  0.00  0.00  0.00
 1982 309   704   359  28.5 2.597  67.7 0.044  0.22   1.2 .0529 0.005 .0582  2559   282    37  1631    24  1280  3266 0.667    33 226.5 258.0  2.00     7 220.0  1.50  39.0  99.9  1.00  0.70  0.85  0.00  0.00   0.0  0.00  0.00  0.00
 1982 310   705   360  28.4 2.600  67.7 0.044  0.58   2.6 .0529 0.005 .0582  2563   283    37  1635    24  1284  3267 0.666    33 226.5 258.6  2.00     7 220.0  1.50  38.9  99.9  1.00  0.70  0.85  0.00  0.00   0.0  0.00  0.00  0.00
 1982 311   706   361  28.5 2.603  67.8 0.044  0.37   1.9 .0529 0.005 .0582  2568   283    37  1639    24  1288  3268 0.666    33 226.5 259.3  2.00     7 220.0  1.50  38.8  99.9  1.00  0.70  0.85  0.00  0.00   0.0  0.00  0.00  0.00
 1982 312   707   362  28.5 2.606  67.9 0.044  0.47   2.5 .0529 0.005 .0582  2572   283    37  1643    24  1291  3268 0.665    33 226.5 259.9  2.00     7 220.0  1.50  38.8  99.9  1.00  0.70  0.85  0.00  0.00   0.0  0.00  0.00  0.00
 1982 313   708   363  28.1 2.609  68.0 0.044  0.30   1.7 .0529 0.005 .0582  2576   283    36  1647    24  1295  3269 0.665    33 226.5 260.5  2.00     7 220.0  1.50  38.7  99.9  1.00  0.70  0.85  0.00  0.00   0.0  0.00  0.00  0.00
 1982 314   709   364  29.5 2.612  68.1 0.044  0.35   2.0 .0529 0.005 .0582  2580   283    36  1651    24  1299  3269 0.664    33 226.5 261.1  2.00     7 220.0  1.50  38.6  99.9  1.00  0.70  0.85  0.00  0.00   0.0  0.00  0.00  0.00
 1982 315   710   365  29.2 2.615  68.1 0.044  0.29   1.6 .0529 0.005 .0583  2585   283    36  1654    25  1300  3271 0.664    33 226.5 261.7  2.00     7 220.0  1.50  38.5  99.9  1.00  0.70  0.85  0.00  0.00   0.0  0.00  0.00  0.00
